19
Properties=species:S:1:pos:R:3:initial_charges:R:1 pbc="F F F"
O        3.28940000      -0.98510000       0.00070000      -0.28000000
O       -3.04558305      -1.43681977      -1.23481025      -0.57000000
N       -0.95383012      -0.67121235      -0.62295526      -0.54000000
C       -0.15590000       0.27550000      -0.00850000       0.16000000
C        1.30410000       0.06880000      -0.00380000      -0.05000000
C       -0.72501275       1.34394299       0.57607392      -0.15000000
C        2.32750000       1.04640000       0.00560000      -0.15000000
C        1.94060000      -1.15050000      -0.00650000      -0.01000000
C       -2.33620347      -0.59677096      -0.68693886       0.62000000
C       -2.15887636       1.50023375       0.55385401      -0.15000000
C       -2.94925825       0.59567034      -0.03666235      -0.14000000
C        3.51650000       0.35470000       0.00800000      -0.01000000
H       -0.51044644      -1.47434950      -1.05736011       0.37000000
H       -0.15882943       2.11981595       1.07892584       0.15000000
H        2.23260000       2.12300000       0.01050000       0.15000000
H        1.60980000      -2.17950000      -0.01280000       0.15000000
H       -2.58203285       2.37615220       1.03306190       0.15000000
H       -4.02700115       0.70120415      -0.05949931       0.15000000
H        4.55480000       0.65270000       0.01440000       0.15000000
