19
Properties=species:S:1:pos:R:3:initial_charges:R:1 pbc="F F F"
O        3.28940000      -0.98510000       0.00070000      -0.28000000
O       -2.87918858      -0.18197453       2.26318667      -0.57000000
N       -0.87127760      -0.04827629       1.12900421      -0.54000000
C       -0.15590000       0.27550000      -0.00850000       0.16000000
C        1.30410000       0.06880000      -0.00380000      -0.05000000
C       -0.79970540       0.77879709      -1.07592356      -0.15000000
C        2.32750000       1.04640000       0.00560000      -0.15000000
C        1.94060000      -1.15050000      -0.00650000      -0.01000000
C       -2.24271674       0.10767645       1.25320134       0.62000000
C       -2.22860246       0.97167445      -1.03191328      -0.15000000
C       -2.93994609       0.66362761       0.05929955      -0.14000000
C        3.51650000       0.35470000       0.00800000      -0.01000000
H       -0.37139731      -0.42430184       1.92841050       0.37000000
H       -0.29925498       1.05801330      -1.99624424       0.15000000
H        2.23260000       2.12300000       0.01050000       0.15000000
H        1.60980000      -2.17950000      -0.01280000       0.15000000
H       -2.71399850       1.37704477      -1.91282209       0.15000000
H       -4.01291825       0.80441953       0.10509321       0.15000000
H        4.55480000       0.65270000       0.01440000       0.15000000
