19
Properties=species:S:1:pos:R:3:initial_charges:R:1 pbc="F F F"
O        3.28940000      -0.98510000       0.00070000      -0.28000000
O       -2.80591426       0.22935671      -2.40879981      -0.57000000
N       -0.83369010       0.16407991      -1.20795744      -0.54000000
C       -0.15590000       0.27550000      -0.00850000       0.16000000
C        1.30410000       0.06880000      -0.00380000      -0.05000000
C       -0.83870985       0.55312823       1.11572404      -0.15000000
C        2.32750000       1.04640000       0.00560000      -0.15000000
C        1.94060000      -1.15050000      -0.00650000      -0.01000000
C       -2.20342938       0.32615304      -1.34263523       0.62000000
C       -2.26827316       0.73913124       1.06437222      -0.15000000
C       -2.94330423       0.63658309      -0.08691618      -0.14000000
C        3.51650000       0.35470000       0.00800000      -0.01000000
H       -0.30548366      -0.04914813      -2.04811082       0.37000000
H       -0.37029367       0.64912587       2.08874675       0.15000000
H        2.23260000       2.12300000       0.01050000       0.15000000
H        1.60980000      -2.17950000      -0.01280000       0.15000000
H       -2.78494105       0.96471040       1.99071076       0.15000000
H       -4.01654183       0.77328571      -0.13851222       0.15000000
H        4.55480000       0.65270000       0.01440000       0.15000000
