19
Properties=species:S:1:pos:R:3:initial_charges:R:1 pbc="F F F"
O        3.28940000      -0.98510000       0.00070000      -0.28000000
O       -3.05388136      -1.44022463       1.19322251      -0.57000000
N       -0.95846417      -0.67632151       0.59186538      -0.54000000
C       -0.15590000       0.27550000      -0.00850000       0.16000000
C        1.30410000       0.06880000      -0.00380000      -0.05000000
C       -0.71872713       1.36240796      -0.56441649      -0.15000000
C        2.32750000       1.04640000       0.00560000      -0.15000000
C        1.94060000      -1.15050000      -0.00650000      -0.01000000
C       -2.34007782      -0.59347216       0.66165951       0.62000000
C       -2.15164310       1.52650328      -0.53777248      -0.15000000
C       -2.94659799       0.61614723       0.03750717      -0.14000000
C        3.51650000       0.35470000       0.00800000      -0.01000000
H       -0.51934207      -1.49016586       1.01038071       0.37000000
H       -0.14797209       2.14818170      -1.04628864       0.15000000
H        2.23260000       2.12300000       0.01050000       0.15000000
H        1.60980000      -2.17950000      -0.01280000       0.15000000
H       -2.57007704       2.41440108      -0.99873373       0.15000000
H       -4.02358753       0.72814008       0.06470664       0.15000000
H        4.55480000       0.65270000       0.01440000       0.15000000
