19
Properties=species:S:1:pos:R:3:initial_charges:R:1 pbc="F F F"
O        3.28940000      -0.98510000       0.00070000      -0.28000000
O       -2.82225875       0.22265045       2.37349116      -0.57000000
N       -0.84281741       0.15401684       1.18477211      -0.54000000
C       -0.15590000       0.27550000      -0.00850000       0.16000000
C        1.30410000       0.06880000      -0.00380000      -0.05000000
C       -0.82632959       0.58949712      -1.13060356      -0.15000000
C        2.32750000       1.04640000       0.00560000      -0.15000000
C        1.94060000      -1.15050000      -0.00650000      -0.01000000
C       -2.21106036       0.33265041       1.31358503       0.62000000
C       -2.25402642       0.79087211      -1.08571223      -0.15000000
C       -2.93806454       0.67691471       0.05916925      -0.14000000
C        3.51650000       0.35470000       0.00800000      -0.01000000
H       -0.32300464      -0.08030028       2.02454358       0.37000000
H       -0.34890890       0.70499549      -2.09710864       0.15000000
H        2.23260000       2.12300000       0.01050000       0.15000000
H        1.60980000      -2.17950000      -0.01280000       0.15000000
H       -2.76139270       1.04004599      -2.01114542       0.15000000
H       -4.00981830       0.82633912       0.10612576       0.15000000
H        4.55480000       0.65270000       0.01440000       0.15000000
