19
Properties=species:S:1:pos:R:3:initial_charges:R:1 pbc="F F F"
O        3.28940000      -0.98510000       0.00070000      -0.28000000
O       -2.54257522       2.18616700       1.84602877      -0.57000000
N       -0.70278639       1.13717177       0.92367436      -0.54000000
C       -0.15590000       0.27550000      -0.00850000       0.16000000
C        1.30410000       0.06880000      -0.00380000      -0.05000000
C       -0.95818041      -0.33649752      -0.89675200      -0.15000000
C        2.32750000       1.04640000       0.00560000      -0.15000000
C        1.94060000      -1.15050000      -0.00650000      -0.01000000
C       -2.05586342       1.42210600       1.01633794       0.62000000
C       -2.38047199      -0.09733218      -0.86896773      -0.15000000
C       -2.93010487       0.73238465       0.02608631      -0.14000000
C        3.51650000       0.35470000       0.00800000      -0.01000000
H       -0.08445647       1.59468362       1.58600129       0.37000000
H       -0.59443115      -1.01919887      -1.65636229       0.15000000
H        2.23260000       2.12300000       0.01050000       0.15000000
H        1.60980000      -2.17950000      -0.01280000       0.15000000
H       -2.99643818      -0.61079626      -1.59895064       0.15000000
H       -3.99628019       0.92084208       0.05678917       0.15000000
H        4.55480000       0.65270000       0.01440000       0.15000000
