19
Properties=species:S:1:pos:R:3:initial_charges:R:1 pbc="F F F"
O        3.28940000      -0.98510000       0.00070000      -0.28000000
O       -2.41464363       3.04754012      -0.01233247      -0.57000000
N       -0.63841275       1.57075305      -0.00489317      -0.54000000
C       -0.15590000       0.27550000      -0.00850000       0.16000000
C        1.30410000       0.06880000      -0.00380000      -0.05000000
C       -1.02008209      -0.75402243      -0.02993115      -0.15000000
C        2.32750000       1.04640000       0.00560000      -0.15000000
C        1.94060000      -1.15050000      -0.00650000      -0.01000000
C       -1.98536354       1.89656053      -0.01772108       0.62000000
C       -2.44064396      -0.50355445      -0.04238662      -0.15000000
C       -2.92840555       0.74292795      -0.03810639      -0.14000000
C        3.51650000       0.35470000       0.00800000      -0.01000000
H        0.02587771       2.33813585       0.00805934       0.37000000
H       -0.70913166      -1.79259420      -0.03892971       0.15000000
H        2.23260000       2.12300000       0.01050000       0.15000000
H        1.60980000      -2.17950000      -0.01280000       0.15000000
H       -3.10729117      -1.35872304      -0.05663155       0.15000000
H       -3.99264516       0.94413369      -0.04805583       0.15000000
H        4.55480000       0.65270000       0.01440000       0.15000000
