19
Properties=species:S:1:pos:R:3:initial_charges:R:1 pbc="F F F"
O        3.28940000      -0.98510000       0.00070000      -0.28000000
O       -2.43233063       2.90372128      -0.84304205      -0.57000000
N       -0.64709655       1.49996068      -0.42073054      -0.54000000
C       -0.15590000       0.27550000      -0.00850000       0.16000000
C        1.30410000       0.06880000      -0.00380000      -0.05000000
C       -1.01259409      -0.69223608       0.36129525      -0.15000000
C        2.32750000       1.04640000       0.00560000      -0.15000000
C        1.94060000      -1.15050000      -0.00650000      -0.01000000
C       -1.99543971       1.81490453      -0.47880467       0.62000000
C       -2.43389465      -0.44735498       0.33260137      -0.15000000
C       -2.92994635       0.73149617      -0.06222866      -0.14000000
C        3.51650000       0.35470000       0.00800000      -0.01000000
H        0.01144318       2.22007549      -0.70016929       0.37000000
H       -0.69488463      -1.67539376       0.68972200       0.15000000
H        2.23260000       2.12300000       0.01050000       0.15000000
H        1.60980000      -2.17950000      -0.01280000       0.15000000
H       -3.09421148      -1.25048081       0.64066846       0.15000000
H       -3.99486786       0.92750518      -0.08889953       0.15000000
H        4.55480000       0.65270000       0.01440000       0.15000000
