19
Properties=species:S:1:pos:R:3:initial_charges:R:1 pbc="F F F"
O        3.28940000      -0.98510000       0.00070000      -0.28000000
O       -2.70405888       1.05757644       2.37506596      -0.57000000
N       -0.78368210       0.57175692       1.18675457      -0.54000000
C       -0.15590000       0.27550000      -0.00850000       0.16000000
C        1.30410000       0.06880000      -0.00380000      -0.05000000
C       -0.88183151       0.19731481      -1.13725903      -0.15000000
C        2.32750000       1.04640000       0.00560000      -0.15000000
C        1.94060000      -1.15050000      -0.00650000      -0.01000000
C       -2.14540306       0.79639121       1.31263930       0.62000000
C       -2.30714087       0.41549137      -1.09509755      -0.15000000
C       -2.93443109       0.70241611       0.05199845      -0.14000000
C        3.51650000       0.35470000       0.00800000      -0.01000000
H       -0.22235857       0.63073438       2.03041534       0.37000000
H       -0.45233906      -0.02580455      -2.10739121       0.15000000
H        2.23260000       2.12300000       0.01050000       0.15000000
H        1.60980000      -2.17950000      -0.01280000       0.15000000
H       -2.86026403       0.34136825      -2.02487994       0.15000000
H       -4.00374178       0.86904549       0.09669724       0.15000000
H        4.55480000       0.65270000       0.01440000       0.15000000
