19
Properties=species:S:1:pos:R:3:initial_charges:R:1 pbc="F F F"
O        3.28940000      -0.98510000       0.00070000      -0.28000000
O       -2.45609178       2.72715777      -1.22695635      -0.57000000
N       -0.65890803       1.41215834      -0.61306825      -0.54000000
C       -0.15590000       0.27550000      -0.00850000       0.16000000
C        1.30410000       0.06880000      -0.00380000      -0.05000000
C       -1.00181423      -0.61196491       0.54288150      -0.15000000
C        2.32750000       1.04640000       0.00560000      -0.15000000
C        1.94060000      -1.15050000      -0.00650000      -0.01000000
C       -2.00875462       1.71601641      -0.69165544       0.62000000
C       -2.42377092      -0.37188066       0.50704714      -0.15000000
C       -2.93113734       0.72285197      -0.07242491      -0.14000000
C        3.51650000       0.35470000       0.00800000      -0.01000000
H       -0.00850016       2.07175211      -1.02807619       0.37000000
H       -0.67466064      -1.52486038       1.02764417       0.15000000
H        2.23260000       2.12300000       0.01050000       0.15000000
H        1.60980000      -2.17950000      -0.01280000       0.15000000
H       -3.07512803      -1.10832243       0.96456455       0.15000000
H       -3.99669608       0.91419113      -0.10652162       0.15000000
H        4.55480000       0.65270000       0.01440000       0.15000000
