21
Properties=species:S:1:pos:R:3:initial_charges:R:1 pbc="F F F"
N        1.75812515       3.43359011      -0.58653530       0.03000000
N        0.79039299      -0.36774259       0.38128842      -0.62000000
N        2.57093326       1.26731851       0.09196964      -0.57000000
N       -3.68270000       0.15740000      -0.31090000       0.30000000
N       -3.47290000      -1.03050000       0.28160000      -0.71000000
C        0.22590746       1.83939206      -0.28548974       0.00000000
C       -0.15510000       0.53860000       0.04110000       0.36000000
C        1.58568204       2.12072334      -0.23715139       0.11000000
C       -1.52450000       0.13410000       0.02560000      -0.05000000
C       -0.42982719       3.03388679      -0.67921143      -0.15000000
C        0.53837018       3.99906353      -0.85743993      -0.30000000
C       -2.54790000       0.89340000      -0.48720000      -0.30000000
C       -2.15270000      -1.03900000       0.48480000       0.14000000
C        2.07718659       0.04725227       0.38555359       0.47000000
H       -1.48847930       3.20300603      -0.81221954       0.15000000
H        2.64713077       3.91181148      -0.63618594       0.27000000
H        0.46744880       5.03742754      -1.14931361       0.15000000
H       -2.57940000       1.86810000      -0.95420000       0.15000000
H       -1.72360000      -1.89970000       0.97690000       0.15000000
H        2.81019811      -0.70283838       0.66249487       0.15000000
H       -4.62960000       0.40350000      -0.57060000       0.27000000
