21
Properties=species:S:1:pos:R:3:initial_charges:R:1 pbc="F F F"
N        2.40182393       1.14019715       2.39387393       0.03000000
N        0.46256443       0.80016285      -1.13415212      -0.62000000
N        2.54942829       1.34380492      -0.00414931      -0.57000000
N       -3.68270000       0.15740000      -0.31090000       0.30000000
N       -3.47290000      -1.03050000       0.28160000      -0.71000000
C        0.55426828       0.66952095       1.23422358       0.00000000
C       -0.15510000       0.53860000       0.04110000       0.36000000
C        1.88063495       1.06981991       1.12942385       0.11000000
C       -1.52450000       0.13410000       0.02560000      -0.05000000
C        0.28222509       0.49704324       2.61555131      -0.15000000
C        1.43809535       0.79358147       3.30603427      -0.30000000
C       -2.54790000       0.89340000      -0.48720000      -0.30000000
C       -2.15270000      -1.03900000       0.48480000       0.14000000
C        1.75883799       1.18132405      -1.08447606       0.47000000
H       -0.63959314       0.17998599       3.08112903       0.15000000
H        3.35050811       1.40583177       2.61954722       0.27000000
H        1.66100460       0.78549405       4.36370433       0.15000000
H       -2.57940000       1.86810000      -0.95420000       0.15000000
H       -1.72360000      -1.89970000       0.97690000       0.15000000
H        2.22458562       1.38337650      -2.04306476       0.15000000
H       -4.62960000       0.40350000      -0.57060000       0.27000000
