21
Properties=species:S:1:pos:R:3:initial_charges:R:1 pbc="F F F"
N        1.72433114       3.51719787       0.21721803       0.03000000
N        0.80749978      -0.40998520      -0.02767363      -0.62000000
N        2.57191548       1.26500168       0.06565393      -0.57000000
N       -3.68270000       0.15740000      -0.31090000       0.30000000
N       -3.47290000      -1.03050000       0.28160000      -0.71000000
C        0.20869582       1.88195336       0.12441795       0.00000000
C       -0.15510000       0.53860000       0.04110000       0.36000000
C        1.57015862       2.15915860       0.13128165       0.11000000
C       -1.52450000       0.13410000       0.02560000      -0.05000000
C       -0.46711908       3.12607851       0.20956004      -0.15000000
C        0.49123566       4.11559852       0.26563190      -0.30000000
C       -2.54790000       0.89340000      -0.48720000      -0.30000000
C       -2.15270000      -1.03900000       0.48480000       0.14000000
C        2.09373116       0.00645039      -0.01133551       0.47000000
H       -1.53146777       3.30814425       0.24197437       0.15000000
H        2.61024598       4.00303329       0.24193021       0.27000000
H        0.40535304       5.19061872       0.33895069       0.15000000
H       -2.57940000       1.86810000      -0.95420000       0.15000000
H       -1.72360000      -1.89970000       0.97690000       0.15000000
H        2.84069162      -0.77808696      -0.06781185       0.15000000
H       -4.62960000       0.40350000      -0.57060000       0.27000000
