21
Properties=species:S:1:pos:R:3:initial_charges:R:1 pbc="F F F"
N        1.73130824       3.50912742      -0.18858473       0.03000000
N        0.80399393      -0.40602794       0.17879144      -0.62000000
N        2.57174936       1.26505568       0.07892115      -0.57000000
N       -3.68270000       0.15740000      -0.31090000       0.30000000
N       -3.47290000      -1.03050000       0.28160000      -0.71000000
C        0.21224253       1.87787648      -0.08253461       0.00000000
C       -0.15510000       0.53860000       0.04110000       0.36000000
C        1.57337319       2.15540408      -0.05473958       0.11000000
C       -1.52450000       0.13410000       0.02560000      -0.05000000
C       -0.45944246       3.11728424      -0.23915523      -0.15000000
C        0.50094186       4.10446617      -0.30137671      -0.30000000
C       -2.54790000       0.89340000      -0.48720000      -0.30000000
C       -2.15270000      -1.03900000       0.48480000       0.14000000
C        2.09035750       0.01019401       0.18902569       0.47000000
H       -1.52298651       3.29981889      -0.29006581       0.15000000
H        2.61785063       3.99427679      -0.20141167       0.27000000
H        0.41803203       5.17648517      -0.41237727       0.15000000
H       -2.57940000       1.86810000      -0.95420000       0.15000000
H       -1.72360000      -1.89970000       0.97690000       0.15000000
H        2.83445863      -0.77111345       0.30087604       0.15000000
H       -4.62960000       0.40350000      -0.57060000       0.27000000
