21
Properties=species:S:1:pos:R:3:initial_charges:R:1 pbc="F F F"
N        2.59347929       0.66603394      -2.16443775       0.03000000
N        0.36554697       1.03973260       1.18518692      -0.62000000
N        2.54385784       1.35694434       0.14509449      -0.57000000
N       -3.68270000       0.15740000      -0.31090000       0.30000000
N       -3.47290000      -1.03050000       0.28160000      -0.71000000
C        0.65188032       0.42814383      -1.09047843       0.00000000
C       -0.15510000       0.53860000       0.04110000       0.36000000
C        1.96867266       0.85184270      -0.96006377       0.11000000
C       -1.52450000       0.13410000       0.02560000      -0.05000000
C        0.49371789      -0.02580201      -2.42492219      -0.15000000
C        1.70540851       0.13267873      -3.06322259      -0.30000000
C       -2.54790000       0.89340000      -0.48720000      -0.30000000
C       -2.15270000      -1.03900000       0.48480000       0.14000000
C        1.66500905       1.41272299       1.16639390       0.47000000
H       -0.39579339      -0.41628247      -2.89750175       0.15000000
H        3.55969211       0.88848717      -2.36049691       0.27000000
H        2.01316713      -0.08329630      -4.07666195       0.15000000
H       -2.57940000       1.86810000      -0.95420000       0.15000000
H       -1.72360000      -1.89970000       0.97690000       0.15000000
H        2.05164837       1.81013238       2.09871045       0.15000000
H       -4.62960000       0.40350000      -0.57060000       0.27000000
