21
Properties=species:S:1:pos:R:3:initial_charges:R:1 pbc="F F F"
N        2.14205686       2.19042284      -2.06362705       0.03000000
N        0.59521378       0.26420398       1.13328958      -0.62000000
N        2.55860423       1.30718074       0.14094327      -0.57000000
N       -3.68270000       0.15740000      -0.31090000       0.30000000
N       -3.47290000      -1.03050000       0.28160000      -0.71000000
C        0.42166477       1.20554266      -1.03890806       0.00000000
C       -0.15510000       0.53860000       0.04110000       0.36000000
C        1.76173601       1.55064677      -0.91407604       0.11000000
C       -1.52450000       0.13410000       0.02560000      -0.05000000
C       -0.00543361       1.65974080      -2.31292273      -0.15000000
C        1.07466618       2.26258266      -2.92177726      -0.30000000
C       -2.54790000       0.89340000      -0.48720000      -0.30000000
C       -2.15270000      -1.03900000       0.48480000       0.14000000
C        1.88788039       0.66015616       1.11563689       0.47000000
H       -0.98751248       1.58151469      -2.75613658       0.15000000
H        3.06651403       2.55386944      -2.25011394       0.27000000
H        1.17742352       2.73876351      -3.88671904       0.15000000
H       -2.57940000       1.86810000      -0.95420000       0.15000000
H       -1.72360000      -1.89970000       0.97690000       0.15000000
H        2.46176251       0.42529189       2.00565736       0.15000000
H       -4.62960000       0.40350000      -0.57060000       0.27000000
