7
Properties=species:S:1:pos:R:3:initial_charges:R:1 pbc="F F F"
F       -1.68570000       0.40030000       0.00000000      -0.15000000
C       -0.68160000      -0.49480000       0.00000000       0.06000000
C        0.56030000      -0.13360000       0.00000000      -0.13000000
C        1.80664929       0.22940582      -0.00058549      -0.24000000
H       -1.04970000      -1.51050000      -0.00010000       0.15000000
H        2.50463149      -0.19202116       0.71318528       0.15000000
H        2.16849108       0.95962566      -0.71498403       0.15000000
