7
Properties=species:S:1:pos:R:3:initial_charges:R:1 pbc="F F F"
F       -1.68570000       0.40030000       0.00000000      -0.15000000
C       -0.68160000      -0.49480000       0.00000000       0.06000000
C        0.56030000      -0.13360000       0.00000000      -0.13000000
C        1.80678655       0.22893388       0.00076438      -0.24000000
H       -1.04970000      -1.51050000      -0.00010000       0.15000000
H        2.33717919       0.38372360      -0.93142249       0.15000000
H        2.33636506       0.38243103       0.93377081       0.15000000
