7
Properties=species:S:1:pos:R:3:initial_charges:R:1 pbc="F F F"
F       -1.68570000       0.40030000       0.00000000      -0.15000000
C       -0.68160000      -0.49480000       0.00000000       0.06000000
C        0.56030000      -0.13360000       0.00000000      -0.13000000
C        1.80667982       0.22930088       0.00066202      -0.24000000
H       -1.04970000      -1.51050000      -0.00010000       0.15000000
H        2.46725850      -0.06352306      -0.80688891       0.15000000
H        2.20595783       0.83080517       0.80892276       0.15000000
