19
Properties=species:S:1:pos:R:3:initial_charges:R:1 pbc="F F F"
O        2.21680000       1.01590000       0.00530000      -0.28000000
O       -3.11854754      -1.68841591      -0.44293242      -0.57000000
N       -0.98431554      -0.83140829      -0.22661773      -0.54000000
C       -0.13890000       0.24000000      -0.00790000       0.15000000
C        1.31580000      -0.00150000      -0.00250000       0.09000000
C       -0.65805859       1.46144858       0.20621672      -0.15000000
C        1.95950000      -1.21710000      -0.00580000      -0.15000000
C       -2.36685448      -0.73689263      -0.24641582       0.62000000
C       -2.08834171       1.64874371       0.20018572      -0.15000000
C       -2.92429411       0.62481347      -0.01057815      -0.14000000
C        3.34500000      -0.92820000       0.00050000      -0.15000000
C        3.44920000       0.44360000       0.00700000      -0.01000000
H       -0.57850610      -1.74829505      -0.38339023       0.37000000
H       -0.04244917       2.33596482       0.38818344       0.15000000
H        1.51370000      -2.20160000      -0.01230000       0.15000000
H       -2.47036886       2.64877711       0.37357717       0.15000000
H       -3.99983339       0.75226825      -0.01680747       0.15000000
H        4.16520000      -1.63140000       0.00010000       0.15000000
H        4.28320000       1.12990000       0.01300000       0.15000000
