19
Properties=species:S:1:pos:R:3:initial_charges:R:1 pbc="F F F"
O        2.21680000       1.01590000       0.00530000      -0.28000000
O       -2.58377989       1.49133942      -2.29767130      -0.57000000
N       -0.71632489       0.76221418      -1.14998295      -0.54000000
C       -0.13890000       0.24000000      -0.00790000       0.15000000
C        1.31580000      -0.00150000      -0.00250000       0.09000000
C       -0.91134135      -0.04525217       1.05477295      -0.15000000
C        1.95950000      -1.21710000      -0.00580000      -0.15000000
C       -2.07047512       1.02518641      -1.28363117       0.62000000
C       -2.33182093       0.20002588       1.00090193      -0.15000000
C       -2.91050350       0.70599709      -0.09490397      -0.14000000
C        3.34500000      -0.92820000       0.00050000      -0.15000000
C        3.44920000       0.44360000       0.00700000      -0.01000000
H       -0.12151565       0.96950003      -1.94570576       0.37000000
H       -0.51267018      -0.46099911       1.97405597       0.15000000
H        1.51370000      -2.20160000      -0.01230000       0.15000000
H       -2.92227233      -0.03966167       1.87839448       0.15000000
H       -3.97581811       0.89399069      -0.14811541       0.15000000
H        4.16520000      -1.63140000       0.00010000       0.15000000
H        4.28320000       1.12990000       0.01300000       0.15000000
