19
Properties=species:S:1:pos:R:3:initial_charges:R:1 pbc="F F F"
O        2.21680000       1.01590000       0.00530000      -0.28000000
O       -3.02715203      -1.16333563      -1.58111007      -0.57000000
N       -0.93832010      -0.56706666      -0.79533350      -0.54000000
C       -0.13890000       0.24000000      -0.00790000       0.15000000
C        1.31580000      -0.00150000      -0.00250000       0.09000000
C       -0.70229600       1.20685169       0.73714430      -0.15000000
C        1.95950000      -1.21710000      -0.00580000      -0.15000000
C       -2.31649587      -0.44771383      -0.87974637       0.62000000
C       -2.13134304       1.40104161       0.70647708      -0.15000000
C       -2.92309606       0.63115140      -0.04987416      -0.14000000
C        3.34500000      -0.92820000       0.00050000      -0.15000000
C        3.44920000       0.44360000       0.00700000      -0.01000000
H       -0.49968347      -1.29510921      -1.34985329       0.37000000
H       -0.12424206       1.86538089       1.37672106       0.15000000
H        1.51370000      -2.20160000      -0.01230000       0.15000000
H       -2.54958762       2.19272026       1.31835332       0.15000000
H       -3.99725366       0.76637207      -0.08100426       0.15000000
H        4.16520000      -1.63140000       0.00010000       0.15000000
H        4.28320000       1.12990000       0.01300000       0.15000000
