19
Properties=species:S:1:pos:R:3:initial_charges:R:1 pbc="F F F"
O        2.21680000       1.01590000       0.00530000      -0.28000000
O       -2.38897074       2.74299652       1.19979644      -0.57000000
N       -0.61968501       1.38350452       0.60179157      -0.54000000
C       -0.13890000       0.24000000      -0.00790000       0.15000000
C        1.31580000      -0.00150000      -0.00250000       0.09000000
C       -0.99878328      -0.60890600      -0.59719414      -0.15000000
C        1.95950000      -1.21710000      -0.00580000      -0.15000000
C       -1.96101031       1.72793288       0.65614815       0.62000000
C       -2.41345856      -0.32718443      -0.58484601      -0.15000000
C       -2.89959067       0.77387236       0.00083351      -0.14000000
C        3.34500000      -0.92820000       0.00050000      -0.15000000
C        3.44920000       0.44360000       0.00700000      -0.01000000
H        0.04130244       2.01700458       1.03964258       0.37000000
H       -0.67670464      -1.51768958      -1.09442975       0.15000000
H        1.51370000      -2.20160000      -0.01230000       0.15000000
H       -3.07680615      -1.03638576      -1.06762917       0.15000000
H       -3.95932168       0.99703371       0.01624322       0.15000000
H        4.16520000      -1.63140000       0.00010000       0.15000000
H        4.28320000       1.12990000       0.01300000       0.15000000
