19
Properties=species:S:1:pos:R:3:initial_charges:R:1 pbc="F F F"
O        2.21680000       1.01590000       0.00530000      -0.28000000
O       -2.35175989       2.92143422      -0.84426249      -0.57000000
N       -0.60058501       1.47569249      -0.42068521      -0.54000000
C       -0.13890000       0.24000000      -0.00790000       0.15000000
C        1.31580000      -0.00150000      -0.00250000       0.09000000
C       -1.01862202      -0.70696395       0.36177107      -0.15000000
C        1.95950000      -1.21710000      -0.00580000      -0.15000000
C       -1.94107448       1.82262375      -0.47955600       0.62000000
C       -2.43363983      -0.42823840       0.33240583      -0.15000000
C       -2.90133351       0.76194544      -0.06306353      -0.14000000
C        3.34500000      -0.92820000       0.00050000      -0.15000000
C        3.44920000       0.44360000       0.00700000      -0.01000000
H        0.07477983       2.17975621      -0.70017915       0.37000000
H       -0.71275618      -1.69496917       0.68911992       0.15000000
H        1.51370000      -2.20160000      -0.01230000       0.15000000
H       -3.11288075      -1.21548985       0.64053416       0.15000000
H       -3.96120607       0.98330130      -0.09026633       0.15000000
H        4.16520000      -1.63140000       0.00010000       0.15000000
H        4.28320000       1.12990000       0.01300000       0.15000000
