7
Properties=species:S:1:pos:R:3:initial_charges:R:1 pbc="F F F"
F       -1.68570000       0.40030000       0.00000000      -0.15000000
C       -0.68160000      -0.49480000       0.00000000       0.06000000
C        0.56030000      -0.13360000       0.00000000      -0.13000000
C        1.80657514       0.22966078       0.00010647      -0.24000000
H       -1.04970000      -1.51050000      -0.00010000       0.15000000
H        2.59489024      -0.50235433      -0.13013078       0.15000000
H        2.07800451       1.27074213       0.13045787       0.15000000
