7
Properties=species:S:1:pos:R:3:initial_charges:R:1 pbc="F F F"
F       -1.68570000       0.40030000       0.00000000      -0.15000000
C       -0.68160000      -0.49480000       0.00000000       0.06000000
C        0.56030000      -0.13360000       0.00000000      -0.13000000
C        1.80661381       0.22952781      -0.00044922      -0.24000000
H       -1.04970000      -1.51050000      -0.00010000       0.15000000
H        2.54784596      -0.34060382       0.54706643       0.15000000
H        2.12516760       1.10858311      -0.54844652       0.15000000
