7
Properties=species:S:1:pos:R:3:initial_charges:R:1 pbc="F F F"
F       -1.68570000       0.40030000       0.00000000      -0.15000000
C       -0.68160000      -0.49480000       0.00000000       0.06000000
C        0.56030000      -0.13360000       0.00000000      -0.13000000
C        1.80686647       0.22865910      -0.00070875      -0.24000000
H       -1.04970000      -1.51050000      -0.00010000       0.15000000
H        2.24000900       0.71782010       0.86378972       0.15000000
H        2.43378078       0.04749033      -0.86596715       0.15000000
