7
Properties=species:S:1:pos:R:3:initial_charges:R:1 pbc="F F F"
F       -1.68570000       0.40030000       0.00000000      -0.15000000
C       -0.68160000      -0.49480000       0.00000000       0.06000000
C        0.56030000      -0.13360000       0.00000000      -0.13000000
C        1.80683094       0.22878128       0.00074766      -0.24000000
H       -1.04970000      -1.51050000      -0.00010000       0.15000000
H        2.28310015       0.56966148      -0.91096331       0.15000000
H        2.39058046       0.19602434       0.91326026       0.15000000
