7
Properties=species:S:1:pos:R:3:initial_charges:R:1 pbc="F F F"
F       -1.68570000       0.40030000       0.00000000      -0.15000000
C       -0.68160000      -0.49480000       0.00000000       0.06000000
C        0.56030000      -0.13360000       0.00000000      -0.13000000
C        1.80667339       0.22932298      -0.00064819      -0.24000000
H       -1.04970000      -1.51050000      -0.00010000       0.15000000
H        2.47528370      -0.09111580       0.78962253       0.15000000
H        2.19791288       0.85846581      -0.79161388       0.15000000
