7
Properties=species:S:1:pos:R:3:initial_charges:R:1 pbc="F F F"
F       -1.68570000       0.40030000       0.00000000      -0.15000000
C       -0.68160000      -0.49480000       0.00000000       0.06000000
C        0.56030000      -0.13360000       0.00000000      -0.13000000
C        1.80658861       0.22961446       0.00028642      -0.24000000
H       -1.04970000      -1.51050000      -0.00010000       0.15000000
H        2.57844741      -0.44581959      -0.34938686       0.15000000
H        2.09448873       1.21406508       0.35026681       0.15000000
