7
Properties=species:S:1:pos:R:3:initial_charges:R:1 pbc="F F F"
F       -1.68570000       0.40030000       0.00000000      -0.15000000
C       -0.68160000      -0.49480000       0.00000000       0.06000000
C        0.56030000      -0.13360000       0.00000000      -0.13000000
C        1.80660548       0.22955645      -0.00040499      -0.24000000
H       -1.04970000      -1.51050000      -0.00010000       0.15000000
H        2.55799057      -0.37548364       0.49314897       0.15000000
H        2.11499740       1.14355092      -0.49439316       0.15000000
