7
Properties=species:S:1:pos:R:3:initial_charges:R:1 pbc="F F F"
F       -1.68570000       0.40030000       0.00000000      -0.15000000
C       -0.68160000      -0.49480000       0.00000000       0.06000000
C        0.56030000      -0.13360000       0.00000000      -0.13000000
C        1.80683815       0.22875649      -0.00074170      -0.24000000
H       -1.04970000      -1.51050000      -0.00010000       0.15000000
H        2.27452914       0.59913085       0.90387785       0.15000000
H        2.39917362       0.16647878      -0.90615649       0.15000000
