7
Properties=species:S:1:pos:R:3:initial_charges:R:1 pbc="F F F"
F       -1.68570000       0.40030000       0.00000000      -0.15000000
C       -0.68160000      -0.49480000       0.00000000       0.06000000
C        0.56030000      -0.13360000       0.00000000      -0.13000000
C        1.80672767       0.22913636      -0.00073475      -0.24000000
H       -1.04970000      -1.51050000      -0.00010000       0.15000000
H        2.40915573       0.13624943       0.89520108       0.15000000
H        2.26420760       0.63052724      -0.89745836       0.15000000
