7
Properties=species:S:1:pos:R:3:initial_charges:R:1 pbc="F F F"
F       -1.68570000       0.40030000       0.00000000      -0.15000000
C       -0.68160000      -0.49480000       0.00000000       0.06000000
C        0.56030000      -0.13360000       0.00000000      -0.13000000
C        1.80658594       0.22962364       0.00026152      -0.24000000
H       -1.04970000      -1.51050000      -0.00010000       0.15000000
H        2.58170581      -0.45702282      -0.31904145       0.15000000
H        2.09122212       1.22529653       0.31984487       0.15000000
