7
Properties=species:S:1:pos:R:3:initial_charges:R:1 pbc="F F F"
F       -1.68570000       0.40030000       0.00000000      -0.15000000
C       -0.68160000      -0.49480000       0.00000000       0.06000000
C        0.56030000      -0.13360000       0.00000000      -0.13000000
C        1.80685247       0.22870724      -0.00072700      -0.24000000
H       -1.04970000      -1.51050000      -0.00010000       0.15000000
H        2.25707359       0.65914758       0.88599202       0.15000000
H        2.41667317       0.10631076      -0.88822549       0.15000000
