7
Properties=species:S:1:pos:R:3:initial_charges:R:1 pbc="F F F"
F       -1.68570000       0.40030000       0.00000000      -0.15000000
C       -0.68160000      -0.49480000       0.00000000       0.06000000
C        0.56030000      -0.13360000       0.00000000      -0.13000000
C        1.80676424       0.22901060       0.00076020      -0.24000000
H       -1.04970000      -1.51050000      -0.00010000       0.15000000
H        2.36436998       0.29023455      -0.92637303       0.15000000
H        2.30910572       0.47615578       0.92870852       0.15000000
