7
Properties=species:S:1:pos:R:3:initial_charges:R:1 pbc="F F F"
F       -1.68570000       0.40030000       0.00000000      -0.15000000
C       -0.68160000      -0.49480000       0.00000000       0.06000000
C        0.56030000      -0.13360000       0.00000000      -0.13000000
C        1.80698954       0.22823595      -0.00023629      -0.24000000
H       -1.04970000      -1.51050000      -0.00010000       0.15000000
H        2.08997496       1.23367635       0.28830733       0.15000000
H        2.58419292      -0.46966590      -0.28903326       0.15000000
