7
Properties=species:S:1:pos:R:3:initial_charges:R:1 pbc="F F F"
F       -1.68570000       0.40030000       0.00000000      -0.15000000
C       -0.68160000      -0.49480000       0.00000000       0.06000000
C        0.56030000      -0.13360000       0.00000000      -0.13000000
C        1.80664371       0.22942503       0.00056810      -0.24000000
H       -1.04970000      -1.51050000      -0.00010000       0.15000000
H        2.51127026      -0.21484700      -0.69252089       0.15000000
H        2.16183514       0.98251051       0.69426621       0.15000000
