7
Properties=species:S:1:pos:R:3:initial_charges:R:1 pbc="F F F"
F       -1.68570000       0.40030000       0.00000000      -0.15000000
C       -0.68160000      -0.49480000       0.00000000       0.06000000
C        0.56030000      -0.13360000       0.00000000      -0.13000000
C        1.80698447       0.22825341       0.00028626      -0.24000000
H       -1.04970000      -1.51050000      -0.00010000       0.15000000
H        2.09608799       1.21265817      -0.34844715       0.15000000
H        2.57806429      -0.44859407       0.34932660       0.15000000
