7
Properties=species:S:1:pos:R:3:initial_charges:R:1 pbc="F F F"
F       -1.68570000       0.40030000       0.00000000      -0.15000000
C       -0.68160000      -0.49480000       0.00000000       0.06000000
C        0.56030000      -0.13360000       0.00000000      -0.13000000
C        1.80657358       0.22966614       0.00005341      -0.24000000
H       -1.04970000      -1.51050000      -0.00010000       0.15000000
H        2.59679790      -0.50891337      -0.06547827       0.15000000
H        2.07609206       1.27731763       0.06564235       0.15000000
