7
Properties=species:S:1:pos:R:3:initial_charges:R:1 pbc="F F F"
F       -1.68570000       0.40030000       0.00000000      -0.15000000
C       -0.68160000      -0.49480000       0.00000000       0.06000000
C        0.56030000      -0.13360000       0.00000000      -0.13000000
C        1.80679395       0.22890844      -0.00076392      -0.24000000
H       -1.04970000      -1.51050000      -0.00010000       0.15000000
H        2.32838407       0.41396353       0.93087277       0.15000000
H        2.34518292       0.35211292      -0.93321968       0.15000000
