7
Properties=species:S:1:pos:R:3:initial_charges:R:1 pbc="F F F"
F       -1.68570000       0.40030000       0.00000000      -0.15000000
C       -0.68160000      -0.49480000       0.00000000       0.06000000
C        0.56030000      -0.13360000       0.00000000      -0.13000000
C        1.80660167       0.22956956       0.00038227      -0.24000000
H       -1.04970000      -1.51050000      -0.00010000       0.15000000
H        2.56252108      -0.39106072      -0.46615011       0.15000000
H        2.11045517       1.15916827       0.46732450       0.15000000
