7
Properties=species:S:1:pos:R:3:initial_charges:R:1 pbc="F F F"
F       -1.68570000       0.40030000       0.00000000      -0.15000000
C       -0.68160000      -0.49480000       0.00000000       0.06000000
C        0.56030000      -0.13360000       0.00000000      -0.13000000
C        1.80699534       0.22821602       0.00015884      -0.24000000
H       -1.04970000      -1.51050000      -0.00010000       0.15000000
H        2.08285485       1.25815714      -0.19315794       0.15000000
H        2.59133083      -0.49420792       0.19364592       0.15000000
