7
Properties=species:S:1:pos:R:3:initial_charges:R:1 pbc="F F F"
F       -1.68570000       0.40030000       0.00000000      -0.15000000
C       -0.68160000      -0.49480000       0.00000000       0.06000000
C        0.56030000      -0.13360000       0.00000000      -0.13000000
C        1.80681621       0.22883190      -0.00075695      -0.24000000
H       -1.04970000      -1.51050000      -0.00010000       0.15000000
H        2.30125905       0.50722642       0.92242847       0.15000000
H        2.37237632       0.25861491      -0.92475398       0.15000000
