7
Properties=species:S:1:pos:R:3:initial_charges:R:1 pbc="F F F"
F       -1.68570000       0.40030000       0.00000000      -0.15000000
C       -0.68160000      -0.49480000       0.00000000       0.06000000
C        0.56030000      -0.13360000       0.00000000      -0.13000000
C        1.80659803       0.22958206      -0.00035878      -0.24000000
H       -1.04970000      -1.51050000      -0.00010000       0.15000000
H        2.56706010      -0.40666704       0.43682893       0.15000000
H        2.10590499       1.17481300      -0.43793117       0.15000000
