7
Properties=species:S:1:pos:R:3:initial_charges:R:1 pbc="F F F"
F       -1.68570000       0.40030000       0.00000000      -0.15000000
C       -0.68160000      -0.49480000       0.00000000       0.06000000
C        0.56030000      -0.13360000       0.00000000      -0.13000000
C        1.80663822       0.22944388      -0.00054979      -0.24000000
H       -1.04970000      -1.51050000      -0.00010000       0.15000000
H        2.51811754      -0.23838972       0.66965724       0.15000000
H        2.15497102       1.00611117      -0.67134630       0.15000000
