7
Properties=species:S:1:pos:R:3:initial_charges:R:1 pbc="F F F"
F       -1.68570000       0.40030000       0.00000000      -0.15000000
C       -0.68160000      -0.49480000       0.00000000       0.06000000
C        0.56030000      -0.13360000       0.00000000      -0.13000000
C        1.80676419       0.22901077      -0.00076018      -0.24000000
H       -1.04970000      -1.51050000      -0.00010000       0.15000000
H        2.36465148       0.28926670       0.92626709       0.15000000
H        2.30882407       0.47712415      -0.92860252       0.15000000
