7
Properties=species:S:1:pos:R:3:initial_charges:R:1 pbc="F F F"
F       -1.68570000       0.40030000       0.00000000      -0.15000000
C       -0.68160000      -0.49480000       0.00000000       0.06000000
C        0.56030000      -0.13360000       0.00000000      -0.13000000
C        1.80658351       0.22963199       0.00023629      -0.24000000
H       -1.04970000      -1.51050000      -0.00010000       0.15000000
H        2.58466646      -0.46720233      -0.28830733       0.15000000
H        2.08825401       1.23550167       0.28903326       0.15000000
