7
Properties=species:S:1:pos:R:3:initial_charges:R:1 pbc="F F F"
F       -1.68570000       0.40030000       0.00000000      -0.15000000
C       -0.68160000      -0.49480000       0.00000000       0.06000000
C        0.56030000      -0.13360000       0.00000000      -0.13000000
C        1.80680887       0.22885716       0.00076018      -0.24000000
H       -1.04970000      -1.51050000      -0.00010000       0.15000000
H        2.30998995       0.47720732      -0.92626709       0.15000000
H        2.36362286       0.28871161       0.92860252       0.15000000
