7
Properties=species:S:1:pos:R:3:initial_charges:R:1 pbc="F F F"
F       -1.68570000       0.40030000       0.00000000      -0.15000000
C       -0.68160000      -0.49480000       0.00000000       0.06000000
C        0.56030000      -0.13360000       0.00000000      -0.13000000
C        1.80696755       0.22831157      -0.00040513      -0.24000000
H       -1.04970000      -1.51050000      -0.00010000       0.15000000
H        2.11680085       1.14144194       0.49400847       0.15000000
H        2.55729946      -0.37719917      -0.49525312       0.15000000
