7
Properties=species:S:1:pos:R:3:initial_charges:R:1 pbc="F F F"
F       -1.68570000       0.40030000       0.00000000      -0.15000000
C       -0.68160000      -0.49480000       0.00000000       0.06000000
C        0.56030000      -0.13360000       0.00000000      -0.13000000
C        1.80688677       0.22858932       0.00067487      -0.24000000
H       -1.04970000      -1.51050000      -0.00010000       0.15000000
H        2.21507648       0.80354461      -0.82215934       0.15000000
H        2.45877565      -0.03844856       0.82423266       0.15000000
