7
Properties=species:S:1:pos:R:3:initial_charges:R:1 pbc="F F F"
F       -1.68570000       0.40030000       0.00000000      -0.15000000
C       -0.68160000      -0.49480000       0.00000000       0.06000000
C        0.56030000      -0.13360000       0.00000000      -0.13000000
C        1.80688009       0.22861229      -0.00068706      -0.24000000
H       -1.04970000      -1.51050000      -0.00010000       0.15000000
H        2.22341850       0.77486257       0.83737913       0.15000000
H        2.45041310      -0.00969593      -0.83948991       0.15000000
