7
Properties=species:S:1:pos:R:3:initial_charges:R:1 pbc="F F F"
F       -1.68570000       0.40030000       0.00000000      -0.15000000
C       -0.68160000      -0.49480000       0.00000000       0.06000000
C        0.56030000      -0.13360000       0.00000000      -0.13000000
C        1.80677161       0.22898525      -0.00076251      -0.24000000
H       -1.04970000      -1.51050000      -0.00010000       0.15000000
H        2.35560699       0.32036400       0.92911824       0.15000000
H        2.31789136       0.44594844      -0.93146082       0.15000000
