7
Properties=species:S:1:pos:R:3:initial_charges:R:1 pbc="F F F"
F       -1.68570000       0.40030000       0.00000000      -0.15000000
C       -0.68160000      -0.49480000       0.00000000       0.06000000
C        0.56030000      -0.13360000       0.00000000      -0.13000000
C        1.80661833       0.22951229       0.00047067      -0.24000000
H       -1.04970000      -1.51050000      -0.00010000       0.15000000
H        2.54221149      -0.32123103      -0.57384027       0.15000000
H        2.13081594       1.08916264       0.57528626       0.15000000
