45
 generated by VMD
 C         0.373000        1.387000        1.554000
 B        -0.458000        1.493000        3.035000
 B        -1.310000       -0.061000        3.145000
 B        -0.080000       -1.355000        3.149000
 B         0.243000        0.187000        4.024000
 B         1.283000        1.168000        2.989000
 C         1.475000        0.235000        1.564000
 B        -1.200000        0.770000        1.579000
 B        -0.990000       -0.998000        1.636000
 B         0.779000       -1.297000        1.590000
 B         1.522000       -0.584000        3.051000
 C         1.143000        0.924000       -1.553000
 B         1.641000        0.236000       -3.030000
 B         0.699000       -1.269000       -3.129000
 B        -1.028000       -0.828000       -3.138000
 B         0.163000        0.199000       -4.020000
 B         0.508000        1.597000       -2.997000
 C        -0.400000        1.323000       -1.568000
 B         1.366000       -0.749000       -1.569000
 B        -0.275000       -1.433000       -1.615000
 B        -1.392000       -0.034000       -1.588000
 B        -1.136000        0.947000       -3.056000
 Co        0.000000        0.000000        0.000000
 H         0.649000        2.327000        1.067000
 H        -0.819000        2.554000        3.419000
 H        -2.343000       -0.154000        3.733000
 H        -0.229000       -2.381000        3.736000
 H         0.317000        0.266000        5.207000
 H         2.111000        1.963000        3.264000
 H         2.428000        0.457000        1.075000
 H        -2.081000        1.404000        1.100000
 H        -1.809000       -1.787000        1.277000
 H         1.358000       -2.224000        1.131000
 H         2.558000       -0.998000        3.452000
 H         1.830000        1.625000       -1.069000
 H         2.745000        0.434000       -3.413000
 H         1.127000       -2.221000       -3.705000
 H        -1.852000       -1.461000       -3.721000
 H         0.195000        0.292000       -5.205000
 H         0.797000        2.705000       -3.283000
 H        -0.674000        2.267000       -1.090000
 H         2.348000       -1.201000       -1.082000
 H        -0.557000       -2.531000       -1.247000
 H        -2.487000        0.027000       -1.138000
 H        -2.004000        1.644000       -3.462000
