8
Generated by Sergi
C	-0.749564325	0.000000000	0.000000000
C	0.749564325	0.000000000	-0.000000000
H	-1.075496985	0.326922928	1.011320840
H	-1.093224515	0.776183952	-0.707167749
H	-1.198158777	-0.986242786	-0.166741273
H	1.066041704	-0.926640786	-0.544073930
H	1.193231343	-0.090849504	1.001213788
H	1.199333384	0.897591094	-0.463997918
