22
Properties=species:S:1:pos:R:3:initial_charges:R:1 pbc="F F F"
C        0.72340000      -0.00020000      -0.00010000       0.00000000
C       -0.72340000       0.00030000      -0.00010000       0.00000000
C        1.42060000       0.73480000       0.95860000      -0.15000000
C       -1.41994178       0.94603150       0.75237826      -0.15000000
C        1.42110000      -0.73500000      -0.95880000      -0.15000000
C       -1.42165781      -0.94463874      -0.75174674      -0.15000000
C        2.81550000       0.73510000       0.95880000      -0.15000000
C       -2.81474145       0.94677580       0.75301574      -0.15000000
C        2.81590000      -0.73480000      -0.95860000      -0.15000000
C       -2.81655748      -0.94389440      -0.75110923      -0.15000000
C        3.51310000       0.00010000       0.00010000      -0.15000000
C       -3.51319930       0.00181291       0.00127204      -0.15000000
H        0.89240000       1.31320000       1.71300000       0.15000000
H       -0.89112411       1.68956050       1.34403018       0.15000000
H        0.89310000      -1.31340000      -1.71330000       0.15000000
H       -0.89427579      -1.68886369      -1.34389838       0.15000000
H        3.35850000       1.30740000       1.70510000       0.15000000
H       -3.35722898       1.68305364       1.33891302       0.15000000
H        3.35930000      -1.30690000      -1.70510000       0.15000000
H       -3.36046963      -1.67953612      -1.33637541       0.15000000
H        4.59920000       0.00030000       0.00020000       0.15000000
H       -4.59919902       0.00242464       0.00180598       0.15000000
