22
Properties=species:S:1:pos:R:3:initial_charges:R:1 pbc="F F F"
C        0.72340000      -0.00020000      -0.00010000       0.00000000
C       -0.72340000       0.00030000      -0.00010000       0.00000000
C        1.42060000       0.73480000       0.95860000      -0.15000000
C       -1.41989485       1.08181928       0.53935623      -0.15000000
C        1.42110000      -0.73500000      -0.95880000      -0.15000000
C       -1.42170468      -1.08026043      -0.53880749      -0.15000000
C        2.81550000       0.73510000       0.95880000      -0.15000000
C       -2.81469448       1.08269038       0.53992525      -0.15000000
C        2.81590000      -0.73480000      -0.95860000      -0.15000000
C       -2.81660431      -1.07938927      -0.53823844      -0.15000000
C        3.51310000       0.00010000       0.00010000      -0.15000000
C       -3.51319921       0.00208618       0.00112796      -0.15000000
H        0.89240000       1.31320000       1.71300000       0.15000000
H       -0.89104029       1.93210773       0.96345278       0.15000000
H        0.89310000      -1.31340000      -1.71330000       0.15000000
H       -0.89435959      -1.93134150      -0.96332403       0.15000000
H        3.35850000       1.30740000       1.70510000       0.15000000
H       -3.35714547       1.92469777       0.95997748       0.15000000
H        3.35930000      -1.30690000      -1.70510000       0.15000000
H       -3.36055295      -1.92063502      -0.95772756       0.15000000
H        4.59920000       0.00030000       0.00020000       0.15000000
H       -4.59919889       0.00280375       0.00160108       0.15000000
