22
Properties=species:S:1:pos:R:3:initial_charges:R:1 pbc="F F F"
C        0.72340000      -0.00020000      -0.00010000       0.00000000
C       -0.72340000       0.00030000      -0.00010000       0.00000000
C        1.42060000       0.73480000       0.95860000      -0.15000000
C       -1.42040783      -0.40252803      -1.13927151      -0.15000000
C        1.42110000      -0.73500000      -0.95880000      -0.15000000
C       -1.42119181       0.40378718       1.13820168      -0.15000000
C        2.81550000       0.73510000       0.95880000      -0.15000000
C       -2.81520755      -0.40193060      -1.13995110      -0.15000000
C        2.81590000      -0.73480000      -0.95860000      -0.15000000
C       -2.81609153       0.40438465       1.13752205      -0.15000000
C        3.51310000       0.00010000       0.00010000      -0.15000000
C       -3.51319940       0.00152580      -0.00155437      -0.15000000
H        0.89240000       1.31320000       1.71300000       0.15000000
H       -0.89195679      -0.71988622      -2.03512795       0.15000000
H        0.89310000      -1.31340000      -1.71330000       0.15000000
H       -0.89344303       0.72079620       2.03465728       0.15000000
H        3.35850000       1.30740000       1.70510000       0.15000000
H       -3.35805790      -0.71550476      -2.02688861       0.15000000
H        3.35930000      -1.30690000      -1.70510000       0.15000000
H       -3.35964091       0.71844762       2.02378622       0.15000000
H        4.59920000       0.00030000       0.00020000       0.15000000
H       -4.59919918       0.00198357      -0.00213246       0.15000000
