22
Properties=species:S:1:pos:R:3:initial_charges:R:1 pbc="F F F"
C        0.72340000      -0.00020000      -0.00010000       0.00000000
C       -0.72340000       0.00030000      -0.00010000       0.00000000
C        1.42060000       0.73480000       0.95860000      -0.15000000
C       -1.41985794       1.18862666       0.22041786      -0.15000000
C        1.42110000      -0.73500000      -0.95880000      -0.15000000
C       -1.42174153      -1.18687990      -0.22002955      -0.15000000
C        2.81550000       0.73510000       0.95880000      -0.15000000
C       -2.81465752       1.18963954       0.22085759      -0.15000000
C        2.81590000      -0.73480000      -0.95860000      -0.15000000
C       -2.81664111      -1.18586697      -0.21958979      -0.15000000
C        3.51310000       0.00010000       0.00010000      -0.15000000
C       -3.51319910       0.00239281       0.00085380      -0.15000000
H        0.89240000       1.31320000       1.71300000       0.15000000
H       -0.89097436       2.12286616       0.39366400       0.15000000
H        0.89310000      -1.31340000      -1.71330000       0.15000000
H       -0.89442548      -2.12201121      -0.39356155       0.15000000
H        3.35850000       1.30740000       1.70510000       0.15000000
H       -3.35707977       2.11481834       0.39260071       0.15000000
H        3.35930000      -1.30690000      -1.70510000       0.15000000
H       -3.36061844      -2.11014387      -0.39089807       0.15000000
H        4.59920000       0.00030000       0.00020000       0.15000000
H       -4.59919875       0.00322753       0.00121426       0.15000000
