22
Properties=species:S:1:pos:R:3:initial_charges:R:1 pbc="F F F"
C        0.72340000      -0.00020000      -0.00010000       0.00000000
C       -0.72340000       0.00030000      -0.00010000       0.00000000
C        1.42060000       0.73480000       0.95860000      -0.15000000
C       -1.41990877       1.04155478       0.61346832      -0.15000000
C        1.42110000      -0.73500000      -0.95880000      -0.15000000
C       -1.42169078      -1.04004932      -0.61288814      -0.15000000
C        2.81550000       0.73510000       0.95880000      -0.15000000
C       -2.81470841       1.04238524       0.61406309      -0.15000000
C        2.81590000      -0.73480000      -0.95860000      -0.15000000
C       -2.81659043      -1.03921880      -0.61229333      -0.15000000
C        3.51310000       0.00010000       0.00010000      -0.15000000
C       -3.51319924       0.00199852       0.00118232      -0.15000000
H        0.89240000       1.31320000       1.71300000       0.15000000
H       -0.89106514       1.86018805       1.09585766       0.15000000
H        0.89310000      -1.31340000      -1.71330000       0.15000000
H       -0.89433474      -1.85944487      -1.09572627       0.15000000
H        3.35850000       1.30740000       1.70510000       0.15000000
H       -3.35717024       1.85304064       1.09181448       0.15000000
H        3.35930000      -1.30690000      -1.70510000       0.15000000
H       -3.36052825      -1.84915278      -1.08945605       0.15000000
H        4.59920000       0.00030000       0.00020000       0.15000000
H       -4.59919893       0.00268226       0.00167816       0.15000000
