22
Properties=species:S:1:pos:R:3:initial_charges:R:1 pbc="F F F"
C        0.72340000      -0.00020000      -0.00010000       0.00000000
C       -0.72340000       0.00030000      -0.00010000       0.00000000
C        1.42060000       0.73480000       0.95860000      -0.15000000
C       -1.42029392      -0.07291562      -1.20624277      -0.15000000
C        1.42110000      -0.73500000      -0.95880000      -0.15000000
C       -1.42130564       0.07440767       1.20525546      -0.15000000
C        2.81550000       0.73510000       0.95880000      -0.15000000
C       -2.81509358      -0.07213535      -1.20686424      -0.15000000
C        2.81590000      -0.73480000      -0.95860000      -0.15000000
C       -2.81620530       0.07518800       1.20463397      -0.15000000
C        3.51310000       0.00010000       0.00010000      -0.15000000
C       -3.51319927       0.00191655      -0.00142590      -0.15000000
H        0.89240000       1.31320000       1.71300000       0.15000000
H       -0.89175330      -0.13105548      -2.15482069       0.15000000
H        0.89310000      -1.31340000      -1.71330000       0.15000000
H       -0.89364651       0.13203260       2.15441369       0.15000000
H        3.35850000       1.30740000       1.70510000       0.15000000
H       -3.35785524      -0.12908181      -2.14592775       0.15000000
H        3.35930000      -1.30690000      -1.70510000       0.15000000
H       -3.35984330       0.13280448       2.14308148       0.15000000
H        4.59920000       0.00030000       0.00020000       0.15000000
H       -4.59919899       0.00253046      -0.00195887       0.15000000
