22
Properties=species:S:1:pos:R:3:initial_charges:R:1 pbc="F F F"
C        0.72340000      -0.00020000      -0.00010000       0.00000000
C       -0.72340000       0.00030000      -0.00010000       0.00000000
C        1.42060000       0.73480000       0.95860000      -0.15000000
C       -1.41995569       0.90576994      -0.80056012      -0.15000000
C        1.42110000      -0.73500000      -0.95880000      -0.15000000
C       -1.42164370      -0.90381507       0.80019850      -0.15000000
C        2.81550000       0.73510000       0.95880000      -0.15000000
C       -2.81475522       0.90692531      -0.80070771      -0.15000000
C        2.81590000      -0.73480000      -0.95860000      -0.15000000
C       -2.81654323      -0.90265964       0.80005091      -0.15000000
C        3.51310000       0.00010000       0.00010000      -0.15000000
C       -3.51319899       0.00271062      -0.00040220      -0.15000000
H        0.89240000       1.31320000       1.71300000       0.15000000
H       -0.89114905       1.61739482      -1.43023389       0.15000000
H        0.89310000      -1.31340000      -1.71330000       0.15000000
H       -0.89425073      -1.61635455       1.43011141       0.15000000
H        3.35850000       1.30740000       1.70510000       0.15000000
H       -3.35725356       1.61192976      -1.42387516       0.15000000
H        3.35930000      -1.30690000      -1.70510000       0.15000000
H       -3.36044443      -1.60662186       1.42307124       0.15000000
H        4.59920000       0.00030000       0.00020000       0.15000000
H       -4.59919860       0.00365281      -0.00054230       0.15000000
