22
Properties=species:S:1:pos:R:3:initial_charges:R:1 pbc="F F F"
C        0.72340000      -0.00020000      -0.00010000       0.00000000
C       -0.72340000       0.00030000      -0.00010000       0.00000000
C        1.42060000       0.73480000       0.95860000      -0.15000000
C       -1.42040114      -0.38318054       1.14573338      -0.15000000
C        1.42110000      -0.73500000      -0.95880000      -0.15000000
C       -1.42119879       0.38358747      -1.14535699      -0.15000000
C        2.81550000       0.73510000       0.95880000      -0.15000000
C       -2.81520108      -0.38320784       1.14619786      -0.15000000
C        2.81590000      -0.73480000      -0.95860000      -0.15000000
C       -2.81609873       0.38356018      -1.14489249      -0.15000000
C        3.51310000       0.00010000       0.00010000      -0.15000000
C       -3.51319987       0.00016252       0.00088496      -0.15000000
H        0.89240000       1.31320000       1.71300000       0.15000000
H       -0.89194472      -0.68496975       2.04695066       0.15000000
H        0.89310000      -1.31340000      -1.71330000       0.15000000
H       -0.89345528       0.68536806      -2.04705616       0.15000000
H        3.35850000       1.30740000       1.70510000       0.15000000
H       -3.35804626      -0.68182589       2.03828517       0.15000000
H        3.35930000      -1.30690000      -1.70510000       0.15000000
H       -3.35965349       0.68204979      -2.03651900       0.15000000
H        4.59920000       0.00030000       0.00020000       0.15000000
H       -4.59919982       0.00011695       0.00128973       0.15000000
