22
Properties=species:S:1:pos:R:3:initial_charges:R:1 pbc="F F F"
C        0.72340000      -0.00020000      -0.00010000       0.00000000
C       -0.72340000       0.00030000      -0.00010000       0.00000000
C        1.42060000       0.73480000       0.95860000      -0.15000000
C       -1.42065965      -1.13120279      -0.42357665      -0.15000000
C        1.42110000      -0.73500000      -0.95880000      -0.15000000
C       -1.42094024       1.13173234       0.42268185      -0.15000000
C        2.81550000       0.73510000       0.95880000      -0.15000000
C       -2.81545957      -1.13116718      -0.42410188      -0.15000000
C        2.81590000      -0.73480000      -0.95860000      -0.15000000
C       -2.81584015       1.13176796       0.42215659      -0.15000000
C        3.51310000       0.00010000       0.00010000      -0.15000000
C       -3.51319982       0.00031822      -0.00123531      -0.15000000
H        0.89240000       1.31320000       1.71300000       0.15000000
H       -0.89240662      -2.02152776      -0.75645151       0.15000000
H        0.89310000      -1.31340000      -1.71330000       0.15000000
H       -0.89299330       2.02216147       0.75592970       0.15000000
H        3.35850000       1.30740000       1.70510000       0.15000000
H       -3.35850599      -2.01209527      -0.75385889       0.15000000
H        3.35930000      -1.30690000      -1.70510000       0.15000000
H       -3.35919365       2.01262857       0.75139394       0.15000000
H        4.59920000       0.00030000       0.00020000       0.15000000
H       -4.59919976       0.00030369      -0.00167006       0.15000000
