22
Properties=species:S:1:pos:R:3:initial_charges:R:1 pbc="F F F"
C        0.72340000      -0.00020000      -0.00010000       0.00000000
C       -0.72340000       0.00030000      -0.00010000       0.00000000
C        1.42060000       0.73480000       0.95860000      -0.15000000
C       -1.42064221      -1.08073762      -0.53955623      -0.15000000
C        1.42110000      -0.73500000      -0.95880000      -0.15000000
C       -1.42095765       1.08134282       0.53860749      -0.15000000
C        2.81550000       0.73510000       0.95880000      -0.15000000
C       -2.81544211      -1.08064466      -0.54012525      -0.15000000
C        2.81590000      -0.73480000      -0.95860000      -0.15000000
C       -2.81585755       1.08143580       0.53803844      -0.15000000
C        3.51310000       0.00010000       0.00010000      -0.15000000
C       -3.51319978       0.00044207      -0.00132796      -0.15000000
H        0.89240000       1.31320000       1.71300000       0.15000000
H       -0.89237547      -1.93139140      -0.96365278       0.15000000
H        0.89310000      -1.31340000      -1.71330000       0.15000000
H       -0.89302443       1.93205920       0.96312403       0.15000000
H        3.35850000       1.30740000       1.70510000       0.15000000
H       -3.35847495      -1.92227692      -0.96017748       0.15000000
H        3.35930000      -1.30690000      -1.70510000       0.15000000
H       -3.35922461       1.92305731       0.95752756       0.15000000
H        4.59920000       0.00030000       0.00020000       0.15000000
H       -4.59919970       0.00047512      -0.00180108       0.15000000
