22
Properties=species:S:1:pos:R:3:initial_charges:R:1 pbc="F F F"
C        0.72340000      -0.00020000      -0.00010000       0.00000000
C       -0.72340000       0.00030000      -0.00010000       0.00000000
C        1.42060000       0.73480000       0.95860000      -0.15000000
C       -1.42065430      -1.11573424      -0.46281597      -0.15000000
C        1.42110000      -0.73500000      -0.95880000      -0.15000000
C       -1.42094557       1.11628838       0.46190231      -0.15000000
C        2.81550000       0.73510000       0.95880000      -0.15000000
C       -2.81545422      -1.11568003      -0.46335646      -0.15000000
C        2.81590000      -0.73480000      -0.95860000      -0.15000000
C       -2.81584549       1.11634260       0.46136178      -0.15000000
C        3.51310000       0.00010000       0.00010000      -0.15000000
C       -3.51319981       0.00035841      -0.00126763      -0.15000000
H        0.89240000       1.31320000       1.71300000       0.15000000
H       -0.89239708      -1.99389980      -0.82655357       0.15000000
H        0.89310000      -1.31340000      -1.71330000       0.15000000
H       -0.89300284       1.99454478       0.82602905       0.15000000
H        3.35850000       1.30740000       1.70510000       0.15000000
H       -3.35849648      -1.98456302      -0.82366308       0.15000000
H        3.35930000      -1.30690000      -1.70510000       0.15000000
H       -3.35920314       1.98517651       0.82113361       0.15000000
H        4.59920000       0.00030000       0.00020000       0.15000000
H       -4.59919974       0.00035930      -0.00171572       0.15000000
