22
Properties=species:S:1:pos:R:3:initial_charges:R:1 pbc="F F F"
C        0.72340000      -0.00020000      -0.00010000       0.00000000
C       -0.72340000       0.00030000      -0.00010000       0.00000000
C        1.42060000       0.73480000       0.95860000      -0.15000000
C       -1.42067280      -1.16926834      -0.30295737      -0.15000000
C        1.42110000      -0.73500000      -0.95880000      -0.15000000
C       -1.42092711       1.16972829       0.30212413      -0.15000000
C        2.81550000       0.73510000       0.95880000      -0.15000000
C       -2.81547274      -1.16928519      -0.30343306      -0.15000000
C        2.81590000      -0.73480000      -0.95860000      -0.15000000
C       -2.81582704       1.16971146       0.30164841      -0.15000000
C        3.51310000       0.00010000       0.00010000      -0.15000000
C       -3.51319986       0.00020473      -0.00113021      -0.15000000
H        0.89240000       1.31320000       1.71300000       0.15000000
H       -0.89243012      -2.08951191      -0.54096350       0.15000000
H        0.89310000      -1.31340000      -1.71330000       0.15000000
H       -0.89296981       2.09011244       0.54045216       0.15000000
H        3.35850000       1.30740000       1.70510000       0.15000000
H       -3.35852941      -2.07985543      -0.53928195       0.15000000
H        3.35930000      -1.30690000      -1.70510000       0.15000000
H       -3.35917031       2.08016231       0.53702679       0.15000000
H        4.59920000       0.00030000       0.00020000       0.15000000
H       -4.59919981       0.00014689      -0.00152183       0.15000000
