22
Properties=species:S:1:pos:R:3:initial_charges:R:1 pbc="F F F"
C        0.72340000      -0.00020000      -0.00010000       0.00000000
C       -0.72340000       0.00030000      -0.00010000       0.00000000
C        1.42060000       0.73480000       0.95860000      -0.15000000
C       -1.42058601      -0.91811276      -0.78511702      -0.15000000
C        1.42110000      -0.73500000      -0.95880000      -0.15000000
C       -1.42101378       0.91891327       0.78407516      -0.15000000
C        2.81550000       0.73510000       0.95880000      -0.15000000
C       -2.81538586      -0.91787059      -0.78576326      -0.15000000
C        2.81590000      -0.73480000      -0.95860000      -0.15000000
C       -2.81591363       0.91915546       0.78342889      -0.15000000
C        3.51310000       0.00010000       0.00010000      -0.15000000
C       -3.51319967       0.00076356      -0.00149036      -0.15000000
H        0.89240000       1.31320000       1.71300000       0.15000000
H       -0.89227508      -1.64090568      -1.40236369       0.15000000
H        0.89310000      -1.31340000      -1.71330000       0.15000000
H       -0.89312479       1.64165448       1.40183280       0.15000000
H        3.35850000       1.30740000       1.70510000       0.15000000
H       -3.35837494      -1.63287738      -1.39699281       0.15000000
H        3.35930000      -1.30690000      -1.70510000       0.15000000
H       -3.35932440       1.63429920       1.39401863       0.15000000
H        4.59920000       0.00030000       0.00020000       0.15000000
H       -4.59919954       0.00092124      -0.00203223       0.15000000
