22
Properties=species:S:1:pos:R:3:initial_charges:R:1 pbc="F F F"
C        0.72340000      -0.00020000      -0.00010000       0.00000000
C       -0.72340000       0.00030000      -0.00010000       0.00000000
C        1.42060000       0.73480000       0.95860000      -0.15000000
C       -1.42037319      -0.30231652       1.16970924      -0.15000000
C        1.42110000      -0.73500000      -0.95880000      -0.15000000
C       -1.42122672       0.30276531      -1.16928717      -0.15000000
C        2.81550000       0.73510000       0.95880000      -0.15000000
C       -2.81517312      -0.30231019       1.17020812      -0.15000000
C        2.81590000      -0.73480000      -0.95860000      -0.15000000
C       -2.81612665       0.30277165      -1.16878826      -0.15000000
C        3.51310000       0.00010000       0.00010000      -0.15000000
C       -3.51319985       0.00023391       0.00095940      -0.15000000
H        0.89240000       1.31320000       1.71300000       0.15000000
H       -0.89189480      -0.54050530       2.08977020       0.15000000
H        0.89310000      -1.31340000      -1.71330000       0.15000000
H       -0.89350520       0.54091098      -2.08985371       0.15000000
H        3.35850000       1.30740000       1.70510000       0.15000000
H       -3.35799655      -0.53797150       2.08096598       0.15000000
H        3.35930000      -1.30690000      -1.70510000       0.15000000
H       -3.35970315       0.53833791      -2.07905129       0.15000000
H        4.59920000       0.00030000       0.00020000       0.15000000
H       -4.59919979       0.00021760       0.00139255       0.15000000
