22
Properties=species:S:1:pos:R:3:initial_charges:R:1 pbc="F F F"
C        0.72340000      -0.00020000      -0.00010000       0.00000000
C       -0.72340000       0.00030000      -0.00010000       0.00000000
C        1.42060000       0.73480000       0.95860000      -0.15000000
C       -1.42068422      -1.20230353       0.11540548      -0.15000000
C        1.42110000      -0.73500000      -0.95880000      -0.15000000
C       -1.42091575       1.20258442      -0.11598778      -0.15000000
C        2.81550000       0.73510000       0.95880000      -0.15000000
C       -2.81548420      -1.20245299       0.11512911      -0.15000000
C        2.81590000      -0.73480000      -0.95860000      -0.15000000
C       -2.81581573       1.20243496      -0.11626417      -0.15000000
C        3.51310000       0.00010000       0.00010000      -0.15000000
C       -3.51319996      -0.00008374      -0.00070575      -0.15000000
H        0.89240000       1.31320000       1.71300000       0.15000000
H       -0.89245049      -2.14846353       0.20643227       0.15000000
H        0.89310000      -1.31340000      -1.71330000       0.15000000
H       -0.89294947       2.14896459      -0.20688499       0.15000000
H        3.35850000       1.30740000       1.70510000       0.15000000
H       -3.35854977      -2.13876288       0.20500118       0.15000000
H        3.35930000      -1.30690000      -1.70510000       0.15000000
H       -3.35915015       2.13849439      -0.20640914       0.15000000
H        4.59920000       0.00030000       0.00020000       0.15000000
H       -4.59919995      -0.00024939      -0.00092561       0.15000000
