22
Properties=species:S:1:pos:R:3:initial_charges:R:1 pbc="F F F"
C        0.72340000      -0.00020000      -0.00010000       0.00000000
C       -0.72340000       0.00030000      -0.00010000       0.00000000
C        1.42060000       0.73480000       0.95860000      -0.15000000
C       -1.42062829      -1.04047311      -0.61366832      -0.15000000
C        1.42110000      -0.73500000      -0.95880000      -0.15000000
C       -1.42097155       1.04113171       0.61268814      -0.15000000
C        2.81550000       0.73510000       0.95880000      -0.15000000
C       -2.81542818      -1.04033952      -0.61426309      -0.15000000
C        2.81590000      -0.73480000      -0.95860000      -0.15000000
C       -2.81587143       1.04126533       0.61209333      -0.15000000
C        3.51310000       0.00010000       0.00010000      -0.15000000
C       -3.51319975       0.00052973      -0.00138232      -0.15000000
H        0.89240000       1.31320000       1.71300000       0.15000000
H       -0.89235062      -1.85947172      -1.09605766       0.15000000
H        0.89310000      -1.31340000      -1.71330000       0.15000000
H       -0.89304928       1.86016257       1.09552627       0.15000000
H        3.35850000       1.30740000       1.70510000       0.15000000
H       -3.35845019      -1.85061979      -1.09201448       0.15000000
H        3.35930000      -1.30690000      -1.70510000       0.15000000
H       -3.35924931       1.85157507       1.08925605       0.15000000
H        4.59920000       0.00030000       0.00020000       0.15000000
H       -4.59919966       0.00059662      -0.00187816       0.15000000
