22
Properties=species:S:1:pos:R:3:initial_charges:R:1 pbc="F F F"
C        0.72340000      -0.00020000      -0.00010000       0.00000000
C       -0.72340000       0.00030000      -0.00010000       0.00000000
C        1.42060000       0.73480000       0.95860000      -0.15000000
C       -1.42068153      -1.19451721      -0.17901993      -0.15000000
C        1.42110000      -0.73500000      -0.95880000      -0.15000000
C       -1.42091840       1.19491439       0.17825517      -0.15000000
C        2.81550000       0.73510000       0.95880000      -0.15000000
C       -2.81548148      -1.19458106      -0.17944086      -0.15000000
C        2.81590000      -0.73480000      -0.95860000      -0.15000000
C       -2.81581835       1.19485055       0.17783421      -0.15000000
C        3.51310000       0.00010000       0.00010000      -0.15000000
C       -3.51319990       0.00010284      -0.00101383      -0.15000000
H        0.89240000       1.31320000       1.71300000       0.15000000
H       -0.89244570      -2.13459901      -0.31954967       0.15000000
H        0.89310000      -1.31340000      -1.71330000       0.15000000
H       -0.89295424       2.13516763       0.31905222       0.15000000
H        3.35850000       1.30740000       1.70510000       0.15000000
H       -3.35854495      -2.12481499      -0.31879763       0.15000000
H        3.35930000      -1.30690000      -1.70510000       0.15000000
H       -3.35915485       2.12491864       0.31677477       0.15000000
H        4.59920000       0.00030000       0.00020000       0.15000000
H       -4.59919986       0.00000645      -0.00135803       0.15000000
