22
Properties=species:S:1:pos:R:3:initial_charges:R:1 pbc="F F F"
C        0.72340000      -0.00020000      -0.00010000       0.00000000
C       -0.72340000       0.00030000      -0.00010000       0.00000000
C        1.42060000       0.73480000       0.95860000      -0.15000000
C       -1.42061682      -1.00728116       0.66658654      -0.15000000
C        1.42110000      -0.73500000      -0.95880000      -0.15000000
C       -1.42098318       1.00747635      -0.66674798      -0.15000000
C        2.81550000       0.73510000       0.95880000      -0.15000000
C       -2.81541683      -1.00748646       0.66663899      -0.15000000
C        2.81590000      -0.73480000      -0.95860000      -0.15000000
C       -2.81588318       1.00727106      -0.66669554      -0.15000000
C        3.51310000       0.00010000       0.00010000      -0.15000000
C       -3.51320000      -0.00021035      -0.00000206      -0.15000000
H        0.89240000       1.31320000       1.71300000       0.15000000
H       -0.89233006      -1.79997775       1.19106791       0.15000000
H        0.89310000      -1.31340000      -1.71330000       0.15000000
H       -0.89306994       1.80038545      -1.19138966       0.15000000
H        3.35850000       1.30740000       1.70510000       0.15000000
H       -3.35842992      -1.79198469       1.18565027       0.15000000
H        3.35930000      -1.30690000      -1.70510000       0.15000000
H       -3.35927008       1.79146397      -1.18565392       0.15000000
H        4.59920000       0.00030000       0.00020000       0.15000000
H       -4.59920001      -0.00041590       0.00005779       0.15000000
