22
Properties=species:S:1:pos:R:3:initial_charges:R:1 pbc="F F F"
C        0.72340000      -0.00020000      -0.00010000       0.00000000
C       -0.72340000       0.00030000      -0.00010000       0.00000000
C        1.42060000       0.73480000       0.95860000      -0.15000000
C       -1.42006299       0.59530121       1.05177275      -0.15000000
C        1.42110000      -0.73500000      -0.95880000      -0.15000000
C       -1.42153672      -0.59424257      -1.05108538      -0.15000000
C        2.81550000       0.73510000       0.95880000      -0.15000000
C       -2.81486275       0.59578761       1.05246206      -0.15000000
C        2.81590000      -0.73480000      -0.95860000      -0.15000000
C       -2.81643648      -0.59375615      -1.05039604      -0.15000000
C        3.51310000       0.00010000       0.00010000      -0.15000000
C       -3.51319950       0.00125898       0.00137772      -0.15000000
H        0.89240000       1.31320000       1.71300000       0.15000000
H       -0.89134063       1.06303929       1.87894217       0.15000000
H        0.89310000      -1.31340000      -1.71330000       0.15000000
H       -0.89405931      -1.06246531      -1.87884210       0.15000000
H        3.35850000       1.30740000       1.70510000       0.15000000
H       -3.35744466       1.05898523       1.87144084       0.15000000
H        3.35930000      -1.30690000      -1.70510000       0.15000000
H       -3.36025434      -1.05657303      -1.86869203       0.15000000
H        4.59920000       0.00030000       0.00020000       0.15000000
H       -4.59919929       0.00165347       0.00196134       0.15000000
