22
Properties=species:S:1:pos:R:3:initial_charges:R:1 pbc="F F F"
C        0.72340000      -0.00020000      -0.00010000       0.00000000
C       -0.72340000       0.00030000      -0.00010000       0.00000000
C        1.42060000       0.73480000       0.95860000      -0.15000000
C       -1.41986244       1.17560394      -0.28188498      -0.15000000
C        1.42110000      -0.73500000      -0.95880000      -0.15000000
C       -1.42173696      -1.17367536       0.28195206      -0.15000000
C        2.81550000       0.73510000       0.95880000      -0.15000000
C       -2.81466197       1.17674977      -0.28169918      -0.15000000
C        2.81590000      -0.73480000      -0.95860000      -0.15000000
C       -2.81663650      -1.17252945       0.28213787      -0.15000000
C        3.51310000       0.00010000       0.00010000      -0.15000000
C       -3.51319900       0.00268318       0.00031227      -0.15000000
H        0.89240000       1.31320000       1.71300000       0.15000000
H       -0.89098243       2.09952394      -0.50368051       0.15000000
H        0.89310000      -1.31340000      -1.71330000       0.15000000
H       -0.89441738      -2.09855790       0.50370071       0.15000000
H        3.35850000       1.30740000       1.70510000       0.15000000
H       -3.35708772       2.09181309      -0.50103189       0.15000000
H        3.35930000      -1.30690000      -1.70510000       0.15000000
H       -3.36061029      -2.08655953       0.50165370       0.15000000
H        4.59920000       0.00030000       0.00020000       0.15000000
H       -4.59919861       0.00362479       0.00045470       0.15000000
