22
Properties=species:S:1:pos:R:3:initial_charges:R:1 pbc="F F F"
C        0.72340000      -0.00020000      -0.00010000       0.00000000
C       -0.72340000       0.00030000      -0.00010000       0.00000000
C        1.42060000       0.73480000       0.95860000      -0.15000000
C       -1.42030140      -0.09458021       1.20452784      -0.15000000
C        1.42110000      -0.73500000      -0.95880000      -0.15000000
C       -1.42129847       0.09514664      -1.20400525      -0.15000000
C        2.81550000       0.73510000       0.95880000      -0.15000000
C       -2.81510130      -0.09448002       1.20510174      -0.15000000
C        2.81590000      -0.73480000      -0.95860000      -0.15000000
C       -2.81619837       0.09524684      -1.20343132      -0.15000000
C        3.51310000       0.00010000       0.00010000      -0.15000000
C       -3.51319978       0.00043353       0.00112220      -0.15000000
H        0.89240000       1.31320000       1.71300000       0.15000000
H       -0.89176654      -0.16938624       2.15194034       0.15000000
H        0.89310000      -1.31340000      -1.71330000       0.15000000
H       -0.89363345       0.16981688      -2.15197156       0.15000000
H        3.35850000       1.30740000       1.70510000       0.15000000
H       -3.35786883      -0.16840682       2.14297787       0.15000000
H        3.35930000      -1.30690000      -1.70510000       0.15000000
H       -3.35983073       0.16917166      -2.14073844       0.15000000
H        4.59920000       0.00030000       0.00020000       0.15000000
H       -4.59919969       0.00049838       0.00161677       0.15000000
