22
Properties=species:S:1:pos:R:3:initial_charges:R:1 pbc="F F F"
C        0.72340000      -0.00020000      -0.00010000       0.00000000
C       -0.72340000       0.00030000      -0.00010000       0.00000000
C        1.42060000       0.73480000       0.95860000      -0.15000000
C       -1.41991639       1.01950739       0.64942541      -0.15000000
C        1.42110000      -0.73500000      -0.95880000      -0.15000000
C       -1.42168317      -1.01802942      -0.64883093      -0.15000000
C        2.81550000       0.73510000       0.95880000      -0.15000000
C       -2.81471604       1.02031689       0.65003198      -0.15000000
C        2.81590000      -0.73480000      -0.95860000      -0.15000000
C       -2.81658282      -1.01721988      -0.64822433      -0.15000000
C        3.51310000       0.00010000       0.00010000      -0.15000000
C       -3.51319926       0.00195332       0.00120716      -0.15000000
H        0.89240000       1.31320000       1.71300000       0.15000000
H       -0.89107875       1.82080672       1.16009716       0.15000000
H        0.89310000      -1.31340000      -1.71330000       0.15000000
H       -0.89432113      -1.82007512      -1.15996507       0.15000000
H        3.35850000       1.30740000       1.70510000       0.15000000
H       -3.35718380       1.81380529       1.15577726       0.15000000
H        3.35930000      -1.30690000      -1.70510000       0.15000000
H       -3.36051472      -1.81000761      -1.15336922       0.15000000
H        4.59920000       0.00030000       0.00020000       0.15000000
H       -4.59919896       0.00261956       0.00171347       0.15000000
