22
Properties=species:S:1:pos:R:3:initial_charges:R:1 pbc="F F F"
C        0.72340000      -0.00020000      -0.00010000       0.00000000
C       -0.72340000       0.00030000      -0.00010000       0.00000000
C        1.42060000       0.73480000       0.95860000      -0.15000000
C       -1.42064550      -1.09025794       0.51983668      -0.15000000
C        1.42110000      -0.73500000      -0.95880000      -0.15000000
C       -1.42095450       1.09045639      -0.52012191      -0.15000000
C        2.81550000       0.73510000       0.95880000      -0.15000000
C       -2.81544550      -1.09046384       0.51979295      -0.15000000
C        2.81590000      -0.73480000      -0.95860000      -0.15000000
C       -2.81585450       1.09025049      -0.52016564      -0.15000000
C        3.51310000       0.00010000       0.00010000      -0.15000000
C       -3.51320000      -0.00020963      -0.00020822      -0.15000000
H        0.89240000       1.31320000       1.71300000       0.15000000
H       -0.89238130      -1.94823553       0.92891720       0.15000000
H        0.89310000      -1.31340000      -1.71330000       0.15000000
H       -0.89301870       1.94866319      -0.92928081       0.15000000
H        3.35850000       1.30740000       1.70510000       0.15000000
H       -3.35848092      -1.93955797       0.92454609       0.15000000
H        3.35930000      -1.30690000      -1.70510000       0.15000000
H       -3.35921908       1.93903856      -0.92496114       0.15000000
H        4.59920000       0.00030000       0.00020000       0.15000000
H       -4.59920001      -0.00041786      -0.00022980       0.15000000
