22
Properties=species:S:1:pos:R:3:initial_charges:R:1 pbc="F F F"
C        0.72340000      -0.00020000      -0.00010000       0.00000000
C       -0.72340000       0.00030000      -0.00010000       0.00000000
C        1.42060000       0.73480000       0.95860000      -0.15000000
C       -1.42063205      -1.05133186       0.59466042      -0.15000000
C        1.42110000      -0.73500000      -0.95880000      -0.15000000
C       -1.42096795       1.05152652      -0.59488381      -0.15000000
C        2.81550000       0.73510000       0.95880000      -0.15000000
C       -2.81543205      -1.05153914       0.59466479      -0.15000000
C        2.81590000      -0.73480000      -0.95860000      -0.15000000
C       -2.81586796       1.05131924      -0.59487944      -0.15000000
C        3.51310000       0.00010000       0.00010000      -0.15000000
C       -3.51320000      -0.00021359      -0.00010515      -0.15000000
H        0.89240000       1.31320000       1.71300000       0.15000000
H       -0.89235726      -1.87868389       1.06258119       0.15000000
H        0.89310000      -1.31340000      -1.71330000       0.15000000
H       -0.89304274       1.87910084      -1.06292423       0.15000000
H        3.35850000       1.30740000       1.70510000       0.15000000
H       -3.35845700      -1.87033030       1.05767486       0.15000000
H        3.35930000      -1.30690000      -1.70510000       0.15000000
H       -3.35924301       1.86980306      -1.05788424       0.15000000
H        4.59920000       0.00030000       0.00020000       0.15000000
H       -4.59920001      -0.00042190      -0.00008597       0.15000000
