22
Properties=species:S:1:pos:R:3:initial_charges:R:1 pbc="F F F"
C        0.72340000      -0.00020000      -0.00010000       0.00000000
C       -0.72340000       0.00030000      -0.00010000       0.00000000
C        1.42060000       0.73480000       0.95860000      -0.15000000
C       -1.42068599      -1.20743072       0.03121793      -0.15000000
C        1.42110000      -0.73500000      -0.95880000      -0.15000000
C       -1.42091397       1.20774022      -0.03185518      -0.15000000
C        2.81550000       0.73510000       0.95880000      -0.15000000
C       -2.81548597      -1.20755936       0.03089818      -0.15000000
C        2.81590000      -0.73480000      -0.95860000      -0.15000000
C       -2.81581394       1.20761159      -0.03217495      -0.15000000
C        3.51310000       0.00010000       0.00010000      -0.15000000
C       -3.51319994      -0.00003820      -0.00079829      -0.15000000
H        0.89240000       1.31320000       1.71300000       0.15000000
H       -0.89245366      -2.15763607       0.05603494       0.15000000
H        0.89310000      -1.31340000      -1.71330000       0.15000000
H       -0.89294630       2.15815529      -0.05650210       0.15000000
H        3.35850000       1.30740000       1.70510000       0.15000000
H       -3.35855291      -2.14785714       0.05522456       0.15000000
H        3.35930000      -1.30690000      -1.70510000       0.15000000
H       -3.35914698       2.14767947      -0.05681723       0.15000000
H        4.59920000       0.00030000       0.00020000       0.15000000
H       -4.59919993      -0.00018720      -0.00105535       0.15000000
