22
Properties=species:S:1:pos:R:3:initial_charges:R:1 pbc="F F F"
C        0.72340000      -0.00020000      -0.00010000       0.00000000
C       -0.72340000       0.00030000      -0.00010000       0.00000000
C        1.42060000       0.73480000       0.95860000      -0.15000000
C       -1.42003813       0.66722734       1.00772206      -0.15000000
C        1.42110000      -0.73500000      -0.95880000      -0.15000000
C       -1.42156155      -0.66610674      -1.00703521      -0.15000000
C        2.81550000       0.73510000       0.95880000      -0.15000000
C       -2.81483788       0.66776181       1.00840938      -0.15000000
C        2.81590000      -0.73480000      -0.95860000      -0.15000000
C       -2.81646130      -0.66557224      -1.00634786      -0.15000000
C        3.51310000       0.00010000       0.00010000      -0.15000000
C       -3.51319946       0.00136207       0.00137448      -0.15000000
H        0.89240000       1.31320000       1.71300000       0.15000000
H       -0.89129622       1.19152600       1.80023603       0.15000000
H        0.89310000      -1.31340000      -1.71330000       0.15000000
H       -0.89410371      -1.19093074      -1.80012671       0.15000000
H        3.35850000       1.30740000       1.70510000       0.15000000
H       -3.35740043       1.18696062       1.79309522       0.15000000
H        3.35930000      -1.30690000      -1.70510000       0.15000000
H       -3.36029849      -1.18434270      -1.79035294       0.15000000
H        4.59920000       0.00030000       0.00020000       0.15000000
H       -4.59919924       0.00179723       0.00195534       0.15000000
