22
Properties=species:S:1:pos:R:3:initial_charges:R:1 pbc="F F F"
C        0.72340000      -0.00020000      -0.00010000       0.00000000
C       -0.72340000       0.00030000      -0.00010000       0.00000000
C        1.42060000       0.73480000       0.95860000      -0.15000000
C       -1.42068484      -1.20408694      -0.09522105      -0.15000000
C        1.42110000      -0.73500000      -0.95880000      -0.15000000
C       -1.42091511       1.20444638       0.09450544      -0.15000000
C        2.81550000       0.73510000       0.95880000      -0.15000000
C       -2.81548480      -1.20417881      -0.09560288      -0.15000000
C        2.81590000      -0.73480000      -0.95860000      -0.15000000
C       -2.81581507       1.20435451       0.09412359      -0.15000000
C        3.51310000       0.00010000       0.00010000      -0.15000000
C       -3.51319992       0.00004193      -0.00093060      -0.15000000
H        0.89240000       1.31320000       1.71300000       0.15000000
H       -0.89245160      -2.15168205      -0.16984441       0.15000000
H        0.89310000      -1.31340000      -1.71330000       0.15000000
H       -0.89294834       2.15223028       0.16935803       0.15000000
H        3.35850000       1.30740000       1.70510000       0.15000000
H       -3.35855084      -2.14186732      -0.16971725       0.15000000
H        3.35930000      -1.30690000      -1.70510000       0.15000000
H       -3.35914899       2.14184946       0.16786053       0.15000000
H        4.59920000       0.00030000       0.00020000       0.15000000
H       -4.59919989      -0.00007733      -0.00124105       0.15000000
