22
Properties=species:S:1:pos:R:3:initial_charges:R:1 pbc="F F F"
C        0.72340000      -0.00020000      -0.00010000       0.00000000
C       -0.72340000       0.00030000      -0.00010000       0.00000000
C        1.42060000       0.73480000       0.95860000      -0.15000000
C       -1.42062465      -1.02993425       0.63100793      -0.15000000
C        1.42110000      -0.73500000      -0.95880000      -0.15000000
C       -1.42097535       1.03012863      -0.63120034      -0.15000000
C        2.81550000       0.73510000       0.95880000      -0.15000000
C       -2.81542465      -1.03014096       0.63103636      -0.15000000
C        2.81590000      -0.73480000      -0.95860000      -0.15000000
C       -2.81587535       1.02992193      -0.63117192      -0.15000000
C        3.51310000       0.00010000       0.00010000      -0.15000000
C       -3.51320000      -0.00021287      -0.00005358      -0.15000000
H        0.89240000       1.31320000       1.71300000       0.15000000
H       -0.89234405      -1.84045219       1.12751146       0.15000000
H        0.89310000      -1.31340000      -1.71330000       0.15000000
H       -0.89305595       1.84086433      -1.12784394       0.15000000
H        3.35850000       1.30740000       1.70510000       0.15000000
H       -3.35844385      -1.83227440       1.12234633       0.15000000
H        3.35930000      -1.30690000      -1.70510000       0.15000000
H       -3.35925616       1.83174863      -1.12245279       0.15000000
H        4.59920000       0.00030000       0.00020000       0.15000000
H       -4.59920001      -0.00042015      -0.00001404       0.15000000
