22
Properties=species:S:1:pos:R:3:initial_charges:R:1 pbc="F F F"
C        0.72340000      -0.00020000      -0.00010000       0.00000000
C       -0.72340000       0.00030000      -0.00010000       0.00000000
C        1.42060000       0.73480000       0.95860000      -0.15000000
C       -1.42035168      -0.24006337      -1.18428151      -0.15000000
C        1.42110000      -0.73500000      -0.95880000      -0.15000000
C       -1.42124791       0.24144186       1.18324480      -0.15000000
C        2.81550000       0.73510000       0.95880000      -0.15000000
C       -2.81515137      -0.23937249      -1.18493843      -0.15000000
C        2.81590000      -0.73480000      -0.95860000      -0.15000000
C       -2.81614760       0.24213279       1.18258785      -0.15000000
C        3.51310000       0.00010000       0.00010000      -0.15000000
C       -3.51319933       0.00172567      -0.00150380      -0.15000000
H        0.89240000       1.31320000       1.71300000       0.15000000
H       -0.89185649      -0.42965572      -2.11556185       0.15000000
H        0.89310000      -1.31340000      -1.71330000       0.15000000
H       -0.89354332       0.43060149       2.11512067       0.15000000
H        3.35850000       1.30740000       1.70510000       0.15000000
H       -3.35795801      -0.42645530      -2.10691152       0.15000000
H        3.35930000      -1.30690000      -1.70510000       0.15000000
H       -3.35974066       0.42979702       2.10390993       0.15000000
H        4.59920000       0.00030000       0.00020000       0.15000000
H       -4.59919908       0.00226308      -0.00206478       0.15000000
