22
Properties=species:S:1:pos:R:3:initial_charges:R:1 pbc="F F F"
C        0.72340000      -0.00020000      -0.00010000       0.00000000
C       -0.72340000       0.00030000      -0.00010000       0.00000000
C        1.42060000       0.73480000       0.95860000      -0.15000000
C       -1.41985284       1.20338519      -0.11560548      -0.15000000
C        1.42110000      -0.73500000      -0.95880000      -0.15000000
C       -1.42174658      -1.20150202       0.11578778      -0.15000000
C        2.81550000       0.73510000       0.95880000      -0.15000000
C       -2.81465239       1.20449871      -0.11532911      -0.15000000
C        2.81590000      -0.73480000      -0.95860000      -0.15000000
C       -2.81664613      -1.20038844       0.11606417      -0.15000000
C        3.51310000       0.00010000       0.00010000      -0.15000000
C       -3.51319903       0.00261199       0.00050575      -0.15000000
H        0.89240000       1.31320000       1.71300000       0.15000000
H       -0.89096527       2.14917986      -0.20663227       0.15000000
H        0.89310000      -1.31340000      -1.71330000       0.15000000
H       -0.89443455      -2.14824689       0.20668499       0.15000000
H        3.35850000       1.30740000       1.70510000       0.15000000
H       -3.35707066       2.14118373      -0.20520118       0.15000000
H        3.35930000      -1.30690000      -1.70510000       0.15000000
H       -3.36062740      -2.13607210       0.20620914       0.15000000
H        4.59920000       0.00030000       0.00020000       0.15000000
H       -4.59919864       0.00352827       0.00072561       0.15000000
