22
Properties=species:S:1:pos:R:3:initial_charges:R:1 pbc="F F F"
C        0.72340000      -0.00020000      -0.00010000       0.00000000
C       -0.72340000       0.00030000      -0.00010000       0.00000000
C        1.42060000       0.73480000       0.95860000      -0.15000000
C       -1.41989806       1.07252959      -0.55778828      -0.15000000
C        1.42110000      -0.73500000      -0.95880000      -0.15000000
C       -1.42170133      -1.07056154       0.55764262      -0.15000000
C        2.81550000       0.73510000       0.95880000      -0.15000000
C       -2.81469759       1.07370066      -0.55776858      -0.15000000
C        2.81590000      -0.73480000      -0.95860000      -0.15000000
C       -2.81660085      -1.06939041       0.55766232      -0.15000000
C        3.51310000       0.00010000       0.00010000      -0.15000000
C       -3.51319898       0.00274076      -0.00004328      -0.15000000
H        0.89240000       1.31320000       1.71300000       0.15000000
H       -0.89104608       1.91534260      -0.99655621       0.15000000
H        0.89310000      -1.31340000      -1.71330000       0.15000000
H       -0.89435371      -1.91433069       0.99650963       0.15000000
H        3.35850000       1.30740000       1.70510000       0.15000000
H       -3.35715106       1.90852687      -0.99191466       0.15000000
H        3.35930000      -1.30690000      -1.70510000       0.15000000
H       -3.36054691      -1.90315861       0.99182694       0.15000000
H        4.59920000       0.00030000       0.00020000       0.15000000
H       -4.59919858       0.00370001      -0.00004208       0.15000000
