22
Properties=species:S:1:pos:R:3:initial_charges:R:1 pbc="F F F"
C        0.72340000      -0.00020000      -0.00010000       0.00000000
C       -0.72340000       0.00030000      -0.00010000       0.00000000
C        1.42060000       0.73480000       0.95860000      -0.15000000
C       -1.42038724      -0.34295778       1.15842705      -0.15000000
C        1.42110000      -0.73500000      -0.95880000      -0.15000000
C       -1.42121268       0.34338524      -1.15802746      -0.15000000
C        2.81550000       0.73510000       0.95880000      -0.15000000
C       -2.81518717      -0.34296857       1.15890903      -0.15000000
C        2.81590000      -0.73480000      -0.95860000      -0.15000000
C       -2.81611262       0.34337447      -1.15754546      -0.15000000
C        3.51310000       0.00010000       0.00010000      -0.15000000
C       -3.51319986       0.00019757       0.00092280      -0.15000000
H        0.89240000       1.31320000       1.71300000       0.15000000
H       -0.89191989      -0.61311123       2.06962125       0.15000000
H        0.89310000      -1.31340000      -1.71330000       0.15000000
H       -0.89348011       0.61351304      -2.06971569       0.15000000
H        3.35850000       1.30740000       1.70510000       0.15000000
H       -3.35802153      -0.61027119       2.06088107       0.15000000
H        3.35930000      -1.30690000      -1.70510000       0.15000000
H       -3.35967819       0.61056505      -2.05903940       0.15000000
H        4.59920000       0.00030000       0.00020000       0.15000000
H       -4.59919980       0.00016638       0.00134202       0.15000000
