22
Properties=species:S:1:pos:R:3:initial_charges:R:1 pbc="F F F"
C        0.72340000      -0.00020000      -0.00010000       0.00000000
C       -0.72340000       0.00030000      -0.00010000       0.00000000
C        1.42060000       0.73480000       0.95860000      -0.15000000
C       -1.41985929       1.18472227      -0.24070421      -0.15000000
C        1.42110000      -0.73500000      -0.95880000      -0.15000000
C       -1.42174012      -1.18280353       0.24080067      -0.15000000
C        2.81550000       0.73510000       0.95880000      -0.15000000
C       -2.81465883       1.18586122      -0.24049536      -0.15000000
C        2.81590000      -0.73480000      -0.95860000      -0.15000000
C       -2.81663965      -1.18166452       0.24100954      -0.15000000
C        3.51310000       0.00010000       0.00010000      -0.15000000
C       -3.51319901       0.00266793       0.00036154      -0.15000000
H        0.89240000       1.31320000       1.71300000       0.15000000
H       -0.89097680       2.11581989      -0.43011391       0.15000000
H        0.89310000      -1.31340000      -1.71330000       0.15000000
H       -0.89442301      -2.11486169       0.43014267       0.15000000
H        3.35850000       1.30740000       1.70510000       0.15000000
H       -3.35708212       2.10802182      -0.42776575       0.15000000
H        3.35930000      -1.30690000      -1.70510000       0.15000000
H       -3.36061590      -2.10279866       0.42848590       0.15000000
H        4.59920000       0.00030000       0.00020000       0.15000000
H       -4.59919862       0.00360422       0.00052365       0.15000000
