22
Properties=species:S:1:pos:R:3:initial_charges:R:1 pbc="F F F"
C        0.72340000      -0.00020000      -0.00010000       0.00000000
C       -0.72340000       0.00030000      -0.00010000       0.00000000
C        1.42060000       0.73480000       0.95860000      -0.15000000
C       -1.42011558       0.44312066       1.12431065      -0.15000000
C        1.42110000      -0.73500000      -0.95880000      -0.15000000
C       -1.42148417      -0.44218529      -1.12363517      -0.15000000
C        2.81550000       0.73510000       0.95880000      -0.15000000
C       -2.81491537       0.44351108       1.12499386      -0.15000000
C        2.81590000      -0.73480000      -0.95860000      -0.15000000
C       -2.81638396      -0.44179485      -1.12295193      -0.15000000
C        3.51310000       0.00010000       0.00010000      -0.15000000
C       -3.51319957       0.00105337       0.00136262      -0.15000000
H        0.89240000       1.31320000       1.71300000       0.15000000
H       -0.89143458       0.79118524       2.00855210       0.15000000
H        0.89310000      -1.31340000      -1.71330000       0.15000000
H       -0.89396538      -0.79065163      -2.00847486       0.15000000
H        3.35850000       1.30740000       1.70510000       0.15000000
H       -3.35753823       0.78822291       2.00044094       0.15000000
H        3.35930000      -1.30690000      -1.70510000       0.15000000
H       -3.36016091      -0.78622101      -1.99772213       0.15000000
H        4.59920000       0.00030000       0.00020000       0.15000000
H       -4.59919939       0.00136645       0.00194323       0.15000000
