22
Properties=species:S:1:pos:R:3:initial_charges:R:1 pbc="F F F"
C        0.72340000      -0.00020000      -0.00010000       0.00000000
C       -0.72340000       0.00030000      -0.00010000       0.00000000
C        1.42060000       0.73480000       0.95860000      -0.15000000
C       -1.41985362       1.20111509       0.13700401      -0.15000000
C        1.42110000      -0.73500000      -0.95880000      -0.15000000
C       -1.42174583      -1.19932892      -0.13666350      -0.15000000
C        2.81550000       0.73510000       0.95880000      -0.15000000
C       -2.81465319       1.20215735       0.13740564      -0.15000000
C        2.81590000      -0.73480000      -0.95860000      -0.15000000
C       -2.81664540      -1.19828660      -0.13626185      -0.15000000
C        3.51310000       0.00010000       0.00010000      -0.15000000
C       -3.51319908       0.00245660       0.00077275      -0.15000000
H        0.89240000       1.31320000       1.71300000       0.15000000
H       -0.89096666       2.14516342       0.24464613       0.15000000
H        0.89310000      -1.31340000      -1.71330000       0.15000000
H       -0.89443318      -2.14428771      -0.24455404       0.15000000
H        3.35850000       1.30740000       1.70510000       0.15000000
H       -3.35707208       2.13706311       0.24420627       0.15000000
H        3.35930000      -1.30690000      -1.70510000       0.15000000
H       -3.36062609      -2.13226141      -0.24266541       0.15000000
H        4.59920000       0.00030000       0.00020000       0.15000000
H       -4.59919872       0.00331534       0.00110027       0.15000000
