22
Properties=species:S:1:pos:R:3:initial_charges:R:1 pbc="F F F"
C        0.72340000      -0.00020000      -0.00010000       0.00000000
C       -0.72340000       0.00030000      -0.00010000       0.00000000
C        1.42060000       0.73480000       0.95860000      -0.15000000
C       -1.41985094       1.20886949       0.01075875      -0.15000000
C        1.42110000      -0.73500000      -0.95880000      -0.15000000
C       -1.42174849      -1.20703067      -0.01049480      -0.15000000
C        2.81550000       0.73510000       0.95880000      -0.15000000
C       -2.81465050       1.20995066       0.01109962      -0.15000000
C        2.81590000      -0.73480000      -0.95860000      -0.15000000
C       -2.81664805      -1.20594944      -0.01015391      -0.15000000
C        3.51310000       0.00010000       0.00010000      -0.15000000
C       -3.51319905       0.00254129       0.00064332      -0.15000000
H        0.89240000       1.31320000       1.71300000       0.15000000
H       -0.89096188       2.15899689       0.01911218       0.15000000
H        0.89310000      -1.31340000      -1.71330000       0.15000000
H       -0.89443795      -2.15809152      -0.01903827       0.15000000
H        3.35850000       1.30740000       1.70510000       0.15000000
H       -3.35706730       2.15089964       0.01961052       0.15000000
H        3.35930000      -1.30690000      -1.70510000       0.15000000
H       -3.36063081      -2.14592901      -0.01832799       0.15000000
H        4.59920000       0.00030000       0.00020000       0.15000000
H       -4.59919868       0.00343162       0.00091852       0.15000000
