22
Properties=species:S:1:pos:R:3:initial_charges:R:1 pbc="F F F"
C        0.72340000      -0.00020000      -0.00010000       0.00000000
C       -0.72340000       0.00030000      -0.00010000       0.00000000
C        1.42060000       0.73480000       0.95860000      -0.15000000
C       -1.41985170       1.20668353      -0.07355646      -0.15000000
C        1.42110000      -0.73500000      -0.95880000      -0.15000000
C       -1.42174772      -1.20481419       0.07376648      -0.15000000
C        2.81550000       0.73510000       0.95880000      -0.15000000
C       -2.81465125       1.20778702      -0.07325821      -0.15000000
C        2.81590000      -0.73480000      -0.95860000      -0.15000000
C       -2.81664727      -1.20371064       0.07406474      -0.15000000
C        3.51310000       0.00010000       0.00010000      -0.15000000
C       -3.51319904       0.00259003       0.00055242      -0.15000000
H        0.89240000       1.31320000       1.71300000       0.15000000
H       -0.89096323       2.15507873      -0.13151366       0.15000000
H        0.89310000      -1.31340000      -1.71330000       0.15000000
H       -0.89443659      -2.15415471       0.13157376       0.15000000
H        3.35850000       1.30740000       1.70510000       0.15000000
H       -3.35706863       2.14703804      -0.13039224       0.15000000
H        3.35930000      -1.30690000      -1.70510000       0.15000000
H       -3.36062944      -2.14197021       0.13149334       0.15000000
H        4.59920000       0.00030000       0.00020000       0.15000000
H       -4.59919865       0.00349831       0.00079102       0.15000000
