22
Properties=species:S:1:pos:R:3:initial_charges:R:1 pbc="F F F"
C        0.72340000      -0.00020000      -0.00010000       0.00000000
C       -0.72340000       0.00030000      -0.00010000       0.00000000
C        1.42060000       0.73480000       0.95860000      -0.15000000
C       -1.42018538       0.24114503       1.18408151      -0.15000000
C        1.42110000      -0.73500000      -0.95880000      -0.15000000
C       -1.42141442      -0.24035946      -1.18344480      -0.15000000
C        2.81550000       0.73510000       0.95880000      -0.15000000
C       -2.81498522       0.24141821       1.18473843      -0.15000000
C        2.81590000      -0.73480000      -0.95860000      -0.15000000
C       -2.81631425      -0.24008626      -1.18278785      -0.15000000
C        3.51310000       0.00010000       0.00010000      -0.15000000
C       -3.51319965       0.00080259       0.00130380      -0.15000000
H        0.89240000       1.31320000       1.71300000       0.15000000
H       -0.89155927       0.43037205       2.11536185       0.15000000
H        0.89310000      -1.31340000      -1.71330000       0.15000000
H       -0.89384070      -0.42988379      -2.11532067       0.15000000
H        3.35850000       1.30740000       1.70510000       0.15000000
H       -3.35766241       0.42887615       2.10671152       0.15000000
H        3.35930000      -1.30690000      -1.70510000       0.15000000
H       -3.36003689      -0.42737473      -2.10410993       0.15000000
H        4.59920000       0.00030000       0.00020000       0.15000000
H       -4.59919951       0.00101579       0.00186478       0.15000000
