22
Properties=species:S:1:pos:R:3:initial_charges:R:1 pbc="F F F"
C        0.72340000      -0.00020000      -0.00010000       0.00000000
C       -0.72340000       0.00030000      -0.00010000       0.00000000
C        1.42060000       0.73480000       0.95860000      -0.15000000
C       -1.42067462      -1.17452227       0.28168498      -0.15000000
C        1.42110000      -0.73500000      -0.95880000      -0.15000000
C       -1.42092537       1.17475775      -0.28215206      -0.15000000
C        2.81550000       0.73510000       0.95880000      -0.15000000
C       -2.81547461      -1.17470405       0.28149918      -0.15000000
C        2.81590000      -0.73480000      -0.95860000      -0.15000000
C       -2.81582536       1.17457598      -0.28233787      -0.15000000
C        3.51310000       0.00010000       0.00010000      -0.15000000
C       -3.51319998      -0.00015492      -0.00051227      -0.15000000
H        0.89240000       1.31320000       1.71300000       0.15000000
H       -0.89243333      -2.09880761       0.50348051       0.15000000
H        0.89310000      -1.31340000      -1.71330000       0.15000000
H       -0.89296665       2.09927560      -0.50390071       0.15000000
H        3.35850000       1.30740000       1.70510000       0.15000000
H       -3.35853270      -2.08939224       0.50083189       0.15000000
H        3.35930000      -1.30690000      -1.70510000       0.15000000
H       -3.35916727       2.08898182      -0.50185370       0.15000000
H        4.59920000       0.00030000       0.00020000       0.15000000
H       -4.59919998      -0.00034591      -0.00065470       0.15000000
