22
Properties=species:S:1:pos:R:3:initial_charges:R:1 pbc="F F F"
C        0.72340000      -0.00020000      -0.00010000       0.00000000
C       -0.72340000       0.00030000      -0.00010000       0.00000000
C        1.42060000       0.73480000       0.95860000      -0.15000000
C       -1.42047407      -0.59421955      -1.05197275      -0.15000000
C        1.42110000      -0.73500000      -0.95880000      -0.15000000
C       -1.42112561       0.59532497       1.05088538      -0.15000000
C        2.81550000       0.73510000       0.95880000      -0.15000000
C       -2.81527384      -0.59374189      -1.05266206      -0.15000000
C        2.81590000      -0.73480000      -0.95860000      -0.15000000
C       -2.81602538       0.59580267       1.05019604      -0.15000000
C        3.51310000       0.00010000       0.00010000      -0.15000000
C       -3.51319949       0.00126928      -0.00157772      -0.15000000
H        0.89240000       1.31320000       1.71300000       0.15000000
H       -0.89207513      -1.06232296      -1.87914217       0.15000000
H        0.89310000      -1.31340000      -1.71330000       0.15000000
H       -0.89332471       1.06318301       1.87864210       0.15000000
H        3.35850000       1.30740000       1.70510000       0.15000000
H       -3.35817577      -1.05656437      -1.87164084       0.15000000
H        3.35930000      -1.30690000      -1.70510000       0.15000000
H       -3.35952322       1.05899532       1.86849203       0.15000000
H        4.59920000       0.00030000       0.00020000       0.15000000
H       -4.59919930       0.00162541      -0.00216134       0.15000000
