22
Properties=species:S:1:pos:R:3:initial_charges:R:1 pbc="F F F"
C        0.72340000      -0.00020000      -0.00010000       0.00000000
C       -0.72340000       0.00030000      -0.00010000       0.00000000
C        1.42060000       0.73480000       0.95860000      -0.15000000
C       -1.42063900      -1.07144793       0.55758828      -0.15000000
C        1.42110000      -0.73500000      -0.95880000      -0.15000000
C       -1.42096100       1.07164394      -0.55784262      -0.15000000
C        2.81550000       0.73510000       0.95880000      -0.15000000
C       -2.81543900      -1.07165494       0.55756858      -0.15000000
C        2.81590000      -0.73480000      -0.95860000      -0.15000000
C       -2.81586100       1.07143693      -0.55786232      -0.15000000
C        3.51310000       0.00010000       0.00010000      -0.15000000
C       -3.51320000      -0.00021251      -0.00015672      -0.15000000
H        0.89240000       1.31320000       1.71300000       0.15000000
H       -0.89236968      -1.91462627       0.99635621       0.15000000
H        0.89310000      -1.31340000      -1.71330000       0.15000000
H       -0.89303031       1.91504839      -0.99670963       0.15000000
H        3.35850000       1.30740000       1.70510000       0.15000000
H       -3.35846936      -1.90610602       0.99171466       0.15000000
H        3.35930000      -1.30690000      -1.70510000       0.15000000
H       -3.35923065       1.90558090      -0.99202694       0.15000000
H        4.59920000       0.00030000       0.00020000       0.15000000
H       -4.59920001      -0.00042113      -0.00015792       0.15000000
