22
Properties=species:S:1:pos:R:3:initial_charges:R:1 pbc="F F F"
C        0.72340000      -0.00020000      -0.00010000       0.00000000
C       -0.72340000       0.00030000      -0.00010000       0.00000000
C        1.42060000       0.73480000       0.95860000      -0.15000000
C       -1.42036591      -0.28124413      -1.17516318      -0.15000000
C        1.42110000      -0.73500000      -0.95880000      -0.15000000
C       -1.42123369       0.28259324       1.17411663      -0.15000000
C        2.81550000       0.73510000       0.95880000      -0.15000000
C       -2.81516561      -0.28057631      -1.17582698      -0.15000000
C        2.81590000      -0.73480000      -0.95860000      -0.15000000
C       -2.81613339       0.28326112       1.17345279      -0.15000000
C        3.51310000       0.00010000       0.00010000      -0.15000000
C       -3.51319935       0.00167639      -0.00151905      -0.15000000
H        0.89240000       1.31320000       1.71300000       0.15000000
H       -0.89188191      -0.50322231      -2.09926590       0.15000000
H        0.89310000      -1.31340000      -1.71330000       0.15000000
H       -0.89351790       0.50415953       2.09881688       0.15000000
H        3.35850000       1.30740000       1.70510000       0.15000000
H       -3.35798333      -0.49972143      -2.09070279       0.15000000
H        3.35930000      -1.30690000      -1.70510000       0.15000000
H       -3.35971538       0.50296482       2.08767080       0.15000000
H        4.59920000       0.00030000       0.00020000       0.15000000
H       -4.59919910       0.00219413      -0.00208535       0.15000000
