22
Properties=species:S:1:pos:R:3:initial_charges:R:1 pbc="F F F"
C        0.72340000      -0.00020000      -0.00010000       0.00000000
C       -0.72340000       0.00030000      -0.00010000       0.00000000
C        1.42060000       0.73480000       0.95860000      -0.15000000
C       -1.42048057      -0.61302745       1.04091401      -0.15000000
C        1.42110000      -0.73500000      -0.95880000      -0.15000000
C       -1.42111939       0.61332930      -1.04069058      -0.15000000
C        2.81550000       0.73510000       0.95880000      -0.15000000
C       -2.81528054      -0.61314019       1.04126244      -0.15000000
C        2.81590000      -0.73480000      -0.95860000      -0.15000000
C       -2.81601936       0.61321656      -1.04034213      -0.15000000
C        3.51310000       0.00010000       0.00010000      -0.15000000
C       -3.51319994      -0.00001819       0.00063440      -0.15000000
H        0.89240000       1.31320000       1.71300000       0.15000000
H       -0.89208663      -1.09559943       1.85972999       0.15000000
H        0.89310000      -1.31340000      -1.71330000       0.15000000
H       -0.89331337       1.09598506      -1.85990383       0.15000000
H        3.35850000       1.30740000       1.70510000       0.15000000
H       -3.35818757      -1.09070399       1.85173032       0.15000000
H        3.35930000      -1.30690000      -1.70510000       0.15000000
H       -3.35951231       1.09056713      -1.85046404       0.15000000
H        4.59920000       0.00030000       0.00020000       0.15000000
H       -4.59919991      -0.00013872       0.00094282       0.15000000
