22
Properties=species:S:1:pos:R:3:initial_charges:R:1 pbc="F F F"
C        0.72340000      -0.00020000      -0.00010000       0.00000000
C       -0.72340000       0.00030000      -0.00010000       0.00000000
C        1.42060000       0.73480000       0.95860000      -0.15000000
C       -1.42064849      -1.09890568      -0.50149153      -0.15000000
C        1.42110000      -0.73500000      -0.95880000      -0.15000000
C       -1.42095138       1.09948505       0.50055988      -0.15000000
C        2.81550000       0.73510000       0.95880000      -0.15000000
C       -2.81544839      -1.09883235      -0.50204663      -0.15000000
C        2.81590000      -0.73480000      -0.95860000      -0.15000000
C       -2.81585129       1.09955840       0.50000476      -0.15000000
C        3.51310000       0.00010000       0.00010000      -0.15000000
C       -3.51319979       0.00039972      -0.00129853      -0.15000000
H        0.89240000       1.31320000       1.71300000       0.15000000
H       -0.89238669      -1.96384214      -0.89564872       0.15000000
H        0.89310000      -1.31340000      -1.71330000       0.15000000
H       -0.89301322       1.96449849       0.89512188       0.15000000
H        3.35850000       1.30740000       1.70510000       0.15000000
H       -3.35848613      -1.95461140      -0.89246388       0.15000000
H        3.35930000      -1.30690000      -1.70510000       0.15000000
H       -3.35921346       1.95530729       0.88987273       0.15000000
H        4.59920000       0.00030000       0.00020000       0.15000000
H       -4.59919972       0.00041646      -0.00175941       0.15000000
