22
Properties=species:S:1:pos:R:3:initial_charges:R:1 pbc="F F F"
C        0.72340000      -0.00020000      -0.00010000       0.00000000
C       -0.72340000       0.00030000      -0.00010000       0.00000000
C        1.42060000       0.73480000       0.95860000      -0.15000000
C       -1.42049893      -0.66614567      -1.00792206      -0.15000000
C        1.42110000      -0.73500000      -0.95880000      -0.15000000
C       -1.42110078       0.66718914       1.00683521      -0.15000000
C        2.81550000       0.73510000       0.95880000      -0.15000000
C       -2.81529871      -0.66571609      -1.00860938      -0.15000000
C        2.81590000      -0.73480000      -0.95860000      -0.15000000
C       -2.81600056       0.66761876       1.00614786      -0.15000000
C        3.51310000       0.00010000       0.00010000      -0.15000000
C       -3.51319953       0.00116619      -0.00157448      -0.15000000
H        0.89240000       1.31320000       1.71300000       0.15000000
H       -0.89211954      -1.19080967      -1.80043603       0.15000000
H        0.89310000      -1.31340000      -1.71330000       0.15000000
H       -0.89328031       1.19164844       1.79992671       0.15000000
H        3.35850000       1.30740000       1.70510000       0.15000000
H       -3.35822000      -1.18453977      -1.79329522       0.15000000
H        3.35930000      -1.30690000      -1.70510000       0.15000000
H       -3.35947906       1.18676499       1.79015294       0.15000000
H        4.59920000       0.00030000       0.00020000       0.15000000
H       -4.59919935       0.00148165      -0.00215534       0.15000000
