22
Properties=species:S:1:pos:R:3:initial_charges:R:1 pbc="F F F"
C        0.72340000      -0.00020000      -0.00010000       0.00000000
C       -0.72340000       0.00030000      -0.00010000       0.00000000
C        1.42060000       0.73480000       0.95860000      -0.15000000
C       -1.42007580       0.55822907       1.07188882      -0.15000000
C        1.42110000      -0.73500000      -0.95880000      -0.15000000
C       -1.42152392      -0.55720139      -1.07120281      -0.15000000
C        2.81550000       0.73510000       0.95880000      -0.15000000
C       -2.81487557       0.55869141       1.07257786      -0.15000000
C        2.81590000      -0.73480000      -0.95860000      -0.15000000
C       -2.81642369      -0.55673902      -1.07051373      -0.15000000
C        3.51310000       0.00010000       0.00010000      -0.15000000
C       -3.51319951       0.00120741       0.00137664      -0.15000000
H        0.89240000       1.31320000       1.71300000       0.15000000
H       -0.89136351       0.99681432       1.91488455       0.15000000
H        0.89310000      -1.31340000      -1.71330000       0.15000000
H       -0.89403643      -0.99625072      -1.91478965       0.15000000
H        3.35850000       1.30740000       1.70510000       0.15000000
H       -3.35746745       0.99302503       1.90721656       0.15000000
H        3.35930000      -1.30690000      -1.70510000       0.15000000
H       -3.36023158      -0.99071574      -1.90446987       0.15000000
H        4.59920000       0.00030000       0.00020000       0.15000000
H       -4.59919932       0.00158152       0.00196057       0.15000000
