22
Properties=species:S:1:pos:R:3:initial_charges:R:1 pbc="F F F"
C        0.72340000      -0.00020000      -0.00010000       0.00000000
C       -0.72340000       0.00030000      -0.00010000       0.00000000
C        1.42060000       0.73480000       0.95860000      -0.15000000
C       -1.42026478       0.01139958      -1.20842873      -0.15000000
C        1.42110000      -0.73500000      -0.95880000      -0.15000000
C       -1.42133476      -0.00985361       1.20747194      -0.15000000
C        2.81550000       0.73510000       0.95880000      -0.15000000
C       -2.81506442       0.01222248      -1.20902788      -0.15000000
C        2.81590000      -0.73480000      -0.95860000      -0.15000000
C       -2.81623440      -0.00903065       1.20687277      -0.15000000
C        3.51310000       0.00010000       0.00010000      -0.15000000
C       -3.51319924       0.00200745      -0.00137716      -0.15000000
H        0.89240000       1.31320000       1.71300000       0.15000000
H       -0.89170124       0.01957034      -2.15873885       0.15000000
H        0.89310000      -1.31340000      -1.71330000       0.15000000
H       -0.89369856      -0.01857942       2.15835050       0.15000000
H        3.35850000       1.30740000       1.70510000       0.15000000
H       -3.35780340       0.02092094      -2.14978935       0.15000000
H        3.35930000      -1.30690000      -1.70510000       0.15000000
H       -3.35989508      -0.01701685       2.14704029       0.15000000
H        4.59920000       0.00030000       0.00020000       0.15000000
H       -4.59919894       0.00265796      -0.00189219       0.15000000
