22
Properties=species:S:1:pos:R:3:initial_charges:R:1 pbc="F F F"
C        0.72340000      -0.00020000      -0.00010000       0.00000000
C       -0.72340000       0.00030000      -0.00010000       0.00000000
C        1.42060000       0.73480000       0.95860000      -0.15000000
C       -1.42010862       0.46325677      -1.11637514      -0.15000000
C        1.42110000      -0.73500000      -0.95880000      -0.15000000
C       -1.42149083      -0.46146108       1.11564725      -0.15000000
C        2.81550000       0.73510000       0.95880000      -0.15000000
C       -2.81490820       0.46427929      -1.11680296      -0.15000000
C        2.81590000      -0.73480000      -0.95860000      -0.15000000
C       -2.81639041      -0.46043850       1.11521941      -0.15000000
C        3.51310000       0.00010000       0.00010000      -0.15000000
C       -3.51319909       0.00243175      -0.00100571      -0.15000000
H        0.89240000       1.31320000       1.71300000       0.15000000
H       -0.89142227       0.82681168      -1.99435808       0.15000000
H        0.89310000      -1.31340000      -1.71330000       0.15000000
H       -0.89397751      -0.82577015       1.99408605       0.15000000
H        3.35850000       1.30740000       1.70510000       0.15000000
H       -3.35752560       0.82477346      -1.98587356       0.15000000
H        3.35930000      -1.30690000      -1.70510000       0.15000000
H       -3.36017259      -0.82002242       1.98386548       0.15000000
H        4.59920000       0.00030000       0.00020000       0.15000000
H       -4.59919874       0.00325516      -0.00138014       0.15000000
