22
Properties=species:S:1:pos:R:3:initial_charges:R:1 pbc="F F F"
C        0.72340000      -0.00020000      -0.00010000       0.00000000
C       -0.72340000       0.00030000      -0.00010000       0.00000000
C        1.42060000       0.73480000       0.95860000      -0.15000000
C       -1.42020670       0.17946075      -1.19515812      -0.15000000
C        1.42110000      -0.73500000      -0.95880000      -0.15000000
C       -1.42139280      -0.17781397       1.19427326      -0.15000000
C        2.81550000       0.73510000       0.95880000      -0.15000000
C       -2.81500632       0.18036371      -1.19570399      -0.15000000
C        2.81590000      -0.73480000      -0.95860000      -0.15000000
C       -2.81629242      -0.17691094       1.19372736      -0.15000000
C        3.51310000       0.00010000       0.00010000      -0.15000000
C       -3.51319918       0.00217796      -0.00126128      -0.15000000
H        0.89240000       1.31320000       1.71300000       0.15000000
H       -0.89159748       0.31980781      -2.13505731       0.15000000
H        0.89310000      -1.31340000      -1.71330000       0.15000000
H       -0.89380231      -0.31879334       2.13470891       0.15000000
H        3.35850000       1.30740000       1.70510000       0.15000000
H       -3.35770007       0.31990804      -2.12612554       0.15000000
H        3.35930000      -1.30690000      -1.70510000       0.15000000
H       -3.35999829      -0.31566361       2.12360762       0.15000000
H        4.59920000       0.00030000       0.00020000       0.15000000
H       -4.59919886       0.00289747      -0.00173299       0.15000000
