22
Properties=species:S:1:pos:R:3:initial_charges:R:1 pbc="F F F"
C        0.72340000      -0.00020000      -0.00010000       0.00000000
C       -0.72340000       0.00030000      -0.00010000       0.00000000
C        1.42060000       0.73480000       0.95860000      -0.15000000
C       -1.42068612      -1.20778783      -0.01095875      -0.15000000
C        1.42110000      -0.73500000      -0.95880000      -0.15000000
C       -1.42091384       1.20811307       0.01029480      -0.15000000
C        2.81550000       0.73510000       0.95880000      -0.15000000
C       -2.81548609      -1.20790494      -0.01129962      -0.15000000
C        2.81590000      -0.73480000      -0.95860000      -0.15000000
C       -2.81581381       1.20799596       0.00995391      -0.15000000
C        3.51310000       0.00010000       0.00010000      -0.15000000
C       -3.51319994      -0.00001304      -0.00084332      -0.15000000
H        0.89240000       1.31320000       1.71300000       0.15000000
H       -0.89245388      -2.15828056      -0.01931218       0.15000000
H        0.89310000      -1.31340000      -1.71330000       0.15000000
H       -0.89294607       2.15880922       0.01883827       0.15000000
H        3.35850000       1.30740000       1.70510000       0.15000000
H       -3.35855312      -2.14847879      -0.01981052       0.15000000
H        3.35930000      -1.30690000      -1.70510000       0.15000000
H       -3.35914675       2.14835130       0.01812799       0.15000000
H        4.59920000       0.00030000       0.00020000       0.15000000
H       -4.59919991      -0.00015275      -0.00111852       0.15000000
