22
Properties=species:S:1:pos:R:3:initial_charges:R:1 pbc="F F F"
C        0.72340000      -0.00020000      -0.00010000       0.00000000
C       -0.72340000       0.00030000      -0.00010000       0.00000000
C        1.42060000       0.73480000       0.95860000      -0.15000000
C       -1.42004406       0.65006621      -1.01906662      -0.15000000
C        1.42110000      -0.73500000      -0.95880000      -0.15000000
C       -1.42155536      -0.64818969       1.01847068      -0.15000000
C        2.81550000       0.73510000       0.95880000      -0.15000000
C       -2.81484362       0.65115481      -1.01939409      -0.15000000
C        2.81590000      -0.73480000      -0.95860000      -0.15000000
C       -2.81645491      -0.64710103       1.01814320      -0.15000000
C        3.51310000       0.00010000       0.00010000      -0.15000000
C       -3.51319904       0.00257129      -0.00078920      -0.15000000
H        0.89240000       1.31320000       1.71300000       0.15000000
H       -0.89130693       1.16055526      -1.82054866       0.15000000
H        0.89310000      -1.31340000      -1.71330000       0.15000000
H       -0.89409285      -1.15950615       1.82033408       0.15000000
H        3.35850000       1.30740000       1.70510000       0.15000000
H       -3.35741075       1.15708762      -1.81269497       0.15000000
H        3.35930000      -1.30690000      -1.70510000       0.15000000
H       -3.36028734      -1.15205800       1.81111887       0.15000000
H        4.59920000       0.00030000       0.00020000       0.15000000
H       -4.59919867       0.00345291      -0.00108013       0.15000000
