22
Properties=species:S:1:pos:R:3:initial_charges:R:1 pbc="F F F"
C        0.72340000      -0.00020000      -0.00010000       0.00000000
C       -0.72340000       0.00030000      -0.00010000       0.00000000
C        1.42060000       0.73480000       0.95860000      -0.15000000
C       -1.42049300      -0.64898454       1.01886662      -0.15000000
C        1.42110000      -0.73500000      -0.95880000      -0.15000000
C       -1.42110697       0.64927209      -1.01867068      -0.15000000
C        2.81550000       0.73510000       0.95880000      -0.15000000
C       -2.81529297      -0.64910909       1.01919409      -0.15000000
C        2.81590000      -0.73480000      -0.95860000      -0.15000000
C       -2.81600694       0.64914755      -1.01834320      -0.15000000
C        3.51310000       0.00010000       0.00010000      -0.15000000
C       -3.51319995      -0.00004304       0.00058920      -0.15000000
H        0.89240000       1.31320000       1.71300000       0.15000000
H       -0.89210883      -1.15983893       1.82034866       0.15000000
H        0.89310000      -1.31340000      -1.71330000       0.15000000
H       -0.89329117       1.16022385      -1.82053408       0.15000000
H        3.35850000       1.30740000       1.70510000       0.15000000
H       -3.35820967      -1.15466677       1.81249497       0.15000000
H        3.35930000      -1.30690000      -1.70510000       0.15000000
H       -3.35949022       1.15448029      -1.81131887       0.15000000
H        4.59920000       0.00030000       0.00020000       0.15000000
H       -4.59919992      -0.00017403       0.00088013       0.15000000
