22
Properties=species:S:1:pos:R:3:initial_charges:R:1 pbc="F F F"
C        0.72340000      -0.00020000      -0.00010000       0.00000000
C       -0.72340000       0.00030000      -0.00010000       0.00000000
C        1.42060000       0.73480000       0.95860000      -0.15000000
C       -1.42061263      -0.99513690      -0.68479116      -0.15000000
C        1.42110000      -0.73500000      -0.95880000      -0.15000000
C       -1.42098720       0.99585095       0.68378334      -0.15000000
C        2.81550000       0.73510000       0.95880000      -0.15000000
C       -2.81541250      -0.99496097      -0.68540879      -0.15000000
C        2.81590000      -0.73480000      -0.95860000      -0.15000000
C       -2.81588707       0.99602690       0.68316568      -0.15000000
C        3.51310000       0.00010000       0.00010000      -0.15000000
C       -3.51319972       0.00062097      -0.00143042      -0.15000000
H        0.89240000       1.31320000       1.71300000       0.15000000
H       -0.89232263      -1.77849113      -1.22312314       0.15000000
H        0.89310000      -1.31340000      -1.71330000       0.15000000
H       -0.89307726       1.77920516       1.22259074       0.15000000
H        3.35850000       1.30740000       1.70510000       0.15000000
H       -3.35842230      -1.76994072      -1.21853179       0.15000000
H        3.35930000      -1.30690000      -1.70510000       0.15000000
H       -3.35927713       1.77107805       1.21567730       0.15000000
H        4.59920000       0.00030000       0.00020000       0.15000000
H       -4.59919961       0.00072320      -0.00194657       0.15000000
