22
Properties=species:S:1:pos:R:3:initial_charges:R:1 pbc="F F F"
C        0.72340000      -0.00020000      -0.00010000       0.00000000
C       -0.72340000       0.00030000      -0.00010000       0.00000000
C        1.42060000       0.73480000       0.95860000      -0.15000000
C       -1.41986609       1.16505397      -0.32272244      -0.15000000
C        1.42110000      -0.73500000      -0.95880000      -0.15000000
C       -1.42173331      -1.16311658       0.32275981      -0.15000000
C        2.81550000       0.73510000       0.95880000      -0.15000000
C       -2.81466562       1.16620588      -0.32255992      -0.15000000
C        2.81590000      -0.73480000      -0.95860000      -0.15000000
C       -2.81663285      -1.16196460       0.32292234      -0.15000000
C        3.51310000       0.00010000       0.00010000      -0.15000000
C       -3.51319900       0.00269670       0.00026249      -0.15000000
H        0.89240000       1.31320000       1.71300000       0.15000000
H       -0.89098894       2.08067048      -0.57663358       0.15000000
H        0.89310000      -1.31340000      -1.71330000       0.15000000
H       -0.89441086      -2.07969691       0.57664495       0.15000000
H        3.35850000       1.30740000       1.70510000       0.15000000
H       -3.35709420       2.07305728      -0.57368772       0.15000000
H        3.35930000      -1.30690000      -1.70510000       0.15000000
H       -3.36060380      -2.06777676       0.57421020       0.15000000
H        4.59920000       0.00030000       0.00020000       0.15000000
H       -4.59919860       0.00364294       0.00038507       0.15000000
