22
Properties=species:S:1:pos:R:3:initial_charges:R:1 pbc="F F F"
C        0.72340000      -0.00020000      -0.00010000       0.00000000
C       -0.72340000       0.00030000      -0.00010000       0.00000000
C        1.42060000       0.73480000       0.95860000      -0.15000000
C       -1.42068344      -1.20003343      -0.13720401      -0.15000000
C        1.42110000      -0.73500000      -0.95880000      -0.15000000
C       -1.42091650       1.20041131       0.13646350      -0.15000000
C        2.81550000       0.73510000       0.95880000      -0.15000000
C       -2.81548339      -1.20011163      -0.13760564      -0.15000000
C        2.81590000      -0.73480000      -0.95860000      -0.15000000
C       -2.81581646       1.20033312       0.13606185      -0.15000000
C        3.51310000       0.00010000       0.00010000      -0.15000000
C       -3.51319991       0.00007166      -0.00097275      -0.15000000
H        0.89240000       1.31320000       1.71300000       0.15000000
H       -0.89244910      -2.14444709      -0.24484613       0.15000000
H        0.89310000      -1.31340000      -1.71330000       0.15000000
H       -0.89295084       2.14500542       0.24435404       0.15000000
H        3.35850000       1.30740000       1.70510000       0.15000000
H       -3.35854834      -2.13464226      -0.24440627       0.15000000
H        3.35930000      -1.30690000      -1.70510000       0.15000000
H       -3.35915147       2.13468370       0.24246541       0.15000000
H        4.59920000       0.00030000       0.00020000       0.15000000
H       -4.59919987      -0.00003646      -0.00130027       0.15000000
