22
Properties=species:S:1:pos:R:3:initial_charges:R:1 pbc="F F F"
C        0.72340000      -0.00020000      -0.00010000       0.00000000
C       -0.72340000       0.00030000      -0.00010000       0.00000000
C        1.42060000       0.73480000       0.95860000      -0.15000000
C       -1.41990501       1.05241352      -0.59486042      -0.15000000
C        1.42110000      -0.73500000      -0.95880000      -0.15000000
C       -1.42169438      -1.05044412       0.59468381      -0.15000000
C        2.81550000       0.73510000       0.95880000      -0.15000000
C       -2.81470454       1.05358486      -0.59486479      -0.15000000
C        2.81590000      -0.73480000      -0.95860000      -0.15000000
C       -2.81659390      -1.04927272       0.59467944      -0.15000000
C        3.51310000       0.00010000       0.00010000      -0.15000000
C       -3.51319898       0.00274184      -0.00009485      -0.15000000
H        0.89240000       1.31320000       1.71300000       0.15000000
H       -0.89105850       1.87940022      -1.06278119       0.15000000
H        0.89310000      -1.31340000      -1.71330000       0.15000000
H       -0.89434129      -1.87838314       1.06272423       0.15000000
H        3.35850000       1.30740000       1.70510000       0.15000000
H       -3.35716343       1.87275116      -1.05787486       0.15000000
H        3.35930000      -1.30690000      -1.70510000       0.15000000
H       -3.36053455      -1.86738077       1.05768424       0.15000000
H        4.59920000       0.00030000       0.00020000       0.15000000
H       -4.59919858       0.00370078      -0.00011403       0.15000000
