22
Properties=species:S:1:pos:R:3:initial_charges:R:1 pbc="F F F"
C        0.72340000      -0.00020000      -0.00010000       0.00000000
C       -0.72340000       0.00030000      -0.00010000       0.00000000
C        1.42060000       0.73480000       0.95860000      -0.15000000
C       -1.42066452      -1.14529248      -0.38382140      -0.15000000
C        1.42110000      -0.73500000      -0.95880000      -0.15000000
C       -1.42093538       1.14579812       0.38294630      -0.15000000
C        2.81550000       0.73510000       0.95880000      -0.15000000
C       -2.81546444      -1.14527493      -0.38433073      -0.15000000
C        2.81590000      -0.73480000      -0.95860000      -0.15000000
C       -2.81583530       1.14581569       0.38243694      -0.15000000
C        3.51310000       0.00010000       0.00010000      -0.15000000
C       -3.51319983       0.00027917      -0.00120160      -0.15000000
H        0.89240000       1.31320000       1.71300000       0.15000000
H       -0.89241532      -2.04669237      -0.68542796       0.15000000
H        0.89310000      -1.31340000      -1.71330000       0.15000000
H       -0.89298460       2.04731489       0.68490925       0.15000000
H        3.35850000       1.30740000       1.70510000       0.15000000
H       -3.35851466      -2.03717463      -0.68313636       0.15000000
H        3.35930000      -1.30690000      -1.70510000       0.15000000
H       -3.35918501       2.03763002       0.68073869       0.15000000
H        4.59920000       0.00030000       0.00020000       0.15000000
H       -4.59919978       0.00024971      -0.00162249       0.15000000
