22
Properties=species:S:1:pos:R:3:initial_charges:R:1 pbc="F F F"
C        0.72340000      -0.00020000      -0.00010000       0.00000000
C       -0.72340000       0.00030000      -0.00010000       0.00000000
C        1.42060000       0.73480000       0.95860000      -0.15000000
C       -1.41987022       1.15308522      -0.36316683      -0.15000000
C        1.42110000      -0.73500000      -0.95880000      -0.15000000
C       -1.42172917      -1.15114007       0.36317421      -0.15000000
C        2.81550000       0.73510000       0.95880000      -0.15000000
C       -2.81466975       1.15424240      -0.36302779      -0.15000000
C        2.81590000      -0.73480000      -0.95860000      -0.15000000
C       -2.81662871      -1.14998282       0.36331326      -0.15000000
C        3.51310000       0.00010000       0.00010000      -0.15000000
C       -3.51319899       0.00270848       0.00021227      -0.15000000
H        0.89240000       1.31320000       1.71300000       0.15000000
H       -0.89099634       2.05928248      -0.64888422       0.15000000
H        0.89310000      -1.31340000      -1.71330000       0.15000000
H       -0.89440346      -2.05830169       0.64888652       0.15000000
H        3.35850000       1.30740000       1.70510000       0.15000000
H       -3.35710156       2.05177725      -0.64564472       0.15000000
H        3.35930000      -1.30690000      -1.70510000       0.15000000
H       -3.36059644      -2.04647325       0.64606699       0.15000000
H        4.59920000       0.00030000       0.00020000       0.15000000
H       -4.59919860       0.00365865       0.00031485       0.15000000
