22
Properties=species:S:1:pos:R:3:initial_charges:R:1 pbc="F F F"
C        0.72340000      -0.00020000      -0.00010000       0.00000000
C       -0.72340000       0.00030000      -0.00010000       0.00000000
C        1.42060000       0.73480000       0.95860000      -0.15000000
C       -1.42048664      -0.63056707      -1.03057514      -0.15000000
C        1.42110000      -0.73500000      -0.95880000      -0.15000000
C       -1.42111306       0.63164150       1.02948749      -0.15000000
C        2.81550000       0.73510000       0.95880000      -0.15000000
C       -2.81528641      -0.63011346      -1.03126388      -0.15000000
C        2.81590000      -0.73480000      -0.95860000      -0.15000000
C       -2.81601284       0.63209515       1.02879873      -0.15000000
C        3.51310000       0.00010000       0.00010000      -0.15000000
C       -3.51319951       0.00121770      -0.00157700      -0.15000000
H        0.89240000       1.31320000       1.71300000       0.15000000
H       -0.89209757      -1.12725323      -1.84091047       0.15000000
H        0.89310000      -1.31340000      -1.71330000       0.15000000
H       -0.89330227       1.12810272       1.84040559       0.15000000
H        3.35850000       1.30740000       1.70510000       0.15000000
H       -3.35819812      -1.12123583      -1.83358494       0.15000000
H        3.35930000      -1.30690000      -1.70510000       0.15000000
H       -3.35950090       1.12356386       1.83043760       0.15000000
H        4.59920000       0.00030000       0.00020000       0.15000000
H       -4.59919932       0.00155348      -0.00215959       0.15000000
