19
Properties=species:S:1:pos:R:3:initial_charges:R:1 pbc="F F F"
O        2.21680000       1.01590000       0.00530000      -0.28000000
O       -2.33262263       3.05906924       0.15571618      -0.57000000
N       -0.59124655       1.54313578       0.07985165      -0.54000000
C       -0.13890000       0.24000000      -0.00790000       0.15000000
C        1.31580000      -0.00150000      -0.00250000       0.09000000
C       -1.02645289      -0.76466005      -0.10897562      -0.15000000
C        1.95950000      -1.21710000      -0.00580000      -0.15000000
C       -1.93008555       1.90122889       0.07554504       0.62000000
C       -2.44054928      -0.47994455      -0.11867876      -0.15000000
C       -2.89933517       0.77463771      -0.03376803      -0.14000000
C        3.34500000      -0.92820000       0.00050000      -0.15000000
C        3.44920000       0.44360000       0.00700000      -0.01000000
H        0.09019907       2.29169462       0.15218265       0.37000000
H       -0.72772814      -1.80471849      -0.18583566       0.15000000
H        1.51370000      -2.20160000      -0.01230000       0.15000000
H       -3.12647460      -1.31613451      -0.19848443       0.15000000
H       -3.95836684       1.00151108      -0.04074411       0.15000000
H        4.16520000      -1.63140000       0.00010000       0.15000000
H        4.28320000       1.12990000       0.01300000       0.15000000
