19
Properties=species:S:1:pos:R:3:initial_charges:R:1 pbc="F F F"
O        2.21680000       1.01590000       0.00530000      -0.28000000
O       -2.33156843       3.06352718       0.07109385      -0.57000000
N       -0.59069913       1.54548665       0.03751769      -0.54000000
C       -0.13890000       0.24000000      -0.00790000       0.15000000
C        1.31580000      -0.00150000      -0.00250000       0.09000000
C       -1.02704583      -0.76734348      -0.06925431      -0.15000000
C        1.95950000      -1.21710000      -0.00580000      -0.15000000
C       -1.92953035       1.90352207       0.02853434       0.62000000
C       -2.44116621      -0.48281093      -0.08067465      -0.15000000
C       -2.89942224       0.77405464      -0.03638774      -0.14000000
C        3.34500000      -0.92820000       0.00050000      -0.15000000
C        3.44920000       0.44360000       0.00700000      -0.01000000
H        0.09117092       2.29593776       0.08013961       0.37000000
H       -0.72879598      -1.80949902      -0.11196667       0.15000000
H        1.51370000      -2.20160000      -0.01230000       0.15000000
H       -3.12756120      -1.32109752      -0.12772408       0.15000000
H       -3.95846982       1.00079291      -0.04511987       0.15000000
H        4.16520000      -1.63140000       0.00010000       0.15000000
H        4.28320000       1.12990000       0.01300000       0.15000000
