19
Properties=species:S:1:pos:R:3:initial_charges:R:1 pbc="F F F"
O        2.21680000       1.01590000       0.00530000      -0.28000000
O       -3.12630751      -1.72383838       0.06334489      -0.57000000
N       -0.98831756      -0.84985187       0.02664453      -0.54000000
C       -0.13890000       0.24000000      -0.00790000       0.15000000
C        1.31580000      -0.00150000      -0.00250000       0.09000000
C       -0.65382889       1.48161422      -0.03136480      -0.15000000
C        1.95950000      -1.21710000      -0.00580000      -0.15000000
C       -2.37098320      -0.75547300       0.03485857       0.62000000
C       -2.08399777       1.66982789      -0.02709317      -0.15000000
C       -2.92381775       0.62803503       0.00517142      -0.14000000
C        3.34500000      -0.92820000       0.00050000      -0.15000000
C        3.44920000       0.44360000       0.00700000      -0.01000000
H       -0.58555762      -1.78113398       0.04758047       0.37000000
H       -0.03479175       2.37221022      -0.05366476       0.15000000
H        1.51370000      -2.20160000      -0.01230000       0.15000000
H       -2.46265242       2.68579473      -0.04963595       0.15000000
H       -3.99929187       0.75611776       0.00947229       0.15000000
H        4.16520000      -1.63140000       0.00010000       0.15000000
H        4.28320000       1.12990000       0.01300000       0.15000000
