19
Properties=species:S:1:pos:R:3:initial_charges:R:1 pbc="F F F"
O        2.21680000       1.01590000       0.00530000      -0.28000000
O       -2.89445732      -0.37790528      -2.20139892      -0.57000000
N       -0.87178436      -0.17319587      -1.10454502      -0.54000000
C       -0.13890000       0.24000000      -0.00790000       0.15000000
C        1.31580000      -0.00150000      -0.00250000       0.09000000
C       -0.76532948       0.83355307       1.02291963      -0.15000000
C        1.95950000      -1.21710000      -0.00580000      -0.15000000
C       -2.24301115      -0.01281357      -1.22600992       0.62000000
C       -2.19202956       1.04154295       0.97717329      -0.15000000
C       -2.91990000       0.64982686      -0.07564868      -0.14000000
C        3.34500000      -0.92820000       0.00050000      -0.15000000
C        3.44920000       0.44360000       0.00700000      -0.01000000
H       -0.38614773      -0.62293181      -1.87385308       0.37000000
H       -0.24119898       1.17280506       1.91008410       0.15000000
H        1.51370000      -2.20160000      -0.01230000       0.15000000
H       -2.66210777       1.52628965       1.82577406       0.15000000
H       -3.99159180       0.79956633      -0.12172516       0.15000000
H        4.16520000      -1.63140000       0.00010000       0.15000000
H        4.28320000       1.12990000       0.01300000       0.15000000
