19
Properties=species:S:1:pos:R:3:initial_charges:R:1 pbc="F F F"
O        2.21680000       1.01590000       0.00530000      -0.28000000
O       -2.84253302      -0.06795995      -2.32778572      -0.57000000
N       -0.84577597      -0.01793556      -1.16732926      -0.54000000
C       -0.13890000       0.24000000      -0.00790000       0.15000000
C        1.31580000      -0.00150000      -0.00250000       0.09000000
C       -0.78986036       0.68706682       1.08007524      -0.15000000
C        1.95950000      -1.21710000      -0.00580000      -0.15000000
C       -2.21421435       0.15906189      -1.29689557       0.62000000
C       -2.21557981       0.90088383       1.03076020      -0.15000000
C       -2.91848519       0.65820243      -0.08220913      -0.14000000
C        3.34500000      -0.92820000       0.00050000      -0.15000000
C        3.44920000       0.44360000       0.00700000      -0.01000000
H       -0.34182243      -0.35830297      -1.97980763       0.37000000
H       -0.28676256       0.90074208       2.01714566       0.15000000
H        1.51370000      -2.20160000      -0.01230000       0.15000000
H       -2.70585638       1.26502708       1.92692131       0.15000000
H       -3.98916029       0.81398880      -0.13174412       0.15000000
H        4.16520000      -1.63140000       0.00010000       0.15000000
H        4.28320000       1.12990000       0.01300000       0.15000000
