19
Properties=species:S:1:pos:R:3:initial_charges:R:1 pbc="F F F"
O        2.21680000       1.01590000       0.00530000      -0.28000000
O       -3.05581298      -1.26917552       1.40643677      -0.57000000
N       -0.95336532      -0.62427225       0.69932015      -0.54000000
C       -0.13890000       0.24000000      -0.00790000       0.15000000
C        1.31580000      -0.00150000      -0.00250000       0.09000000
C       -0.68538142       1.27737344      -0.66556454      -0.15000000
C        1.95950000      -1.21710000      -0.00580000      -0.15000000
C       -2.33134396      -0.50004430       0.77982719       0.62000000
C       -2.11340847       1.47905918      -0.63577749      -0.15000000
C       -2.91975944       0.65330782       0.04216333      -0.14000000
C        3.34500000      -0.92820000       0.00050000      -0.15000000
C        3.44920000       0.44360000       0.00700000      -0.01000000
H       -0.52670744      -1.40101262       1.19386813       0.37000000
H       -0.09401519       1.98912973      -1.23173983       0.15000000
H        1.51370000      -2.20160000      -0.01230000       0.15000000
H       -2.51838541       2.32479330      -1.18057435       0.15000000
H       -3.99317855       0.79436001       0.07288762       0.15000000
H        4.16520000      -1.63140000       0.00010000       0.15000000
H        4.28320000       1.12990000       0.01300000       0.15000000
