19
Properties=species:S:1:pos:R:3:initial_charges:R:1 pbc="F F F"
O        2.21680000       1.01590000       0.00530000      -0.28000000
O       -2.39640015       2.69986745       1.27236786      -0.57000000
N       -0.62341920       1.36182176       0.63803939      -0.54000000
C       -0.13890000       0.24000000      -0.00790000       0.15000000
C        1.31580000      -0.00150000      -0.00250000       0.09000000
C       -0.99521036      -0.58813954      -0.63097762      -0.15000000
C        1.95950000      -1.21710000      -0.00580000      -0.15000000
C       -1.96511105       1.70413511       0.69655141       0.62000000
C       -2.40999679      -0.30705167      -0.61702671      -0.15000000
C       -2.89971621       0.77317406       0.00342330      -0.14000000
C        3.34500000      -0.92820000       0.00050000      -0.15000000
C        3.44920000       0.44360000       0.00700000      -0.01000000
H        0.03491255       1.97989117       1.10121297       0.37000000
H       -0.67009052      -1.47925586      -1.15735609       0.15000000
H        1.51370000      -2.20160000      -0.01230000       0.15000000
H       -3.07041480      -0.99923059      -1.12772478       0.15000000
H       -3.95956842       0.99564145       0.02044731       0.15000000
H        4.16520000      -1.63140000       0.00010000       0.15000000
H        4.28320000       1.12990000       0.01300000       0.15000000
