19
Properties=species:S:1:pos:R:3:initial_charges:R:1 pbc="F F F"
O        2.21680000       1.01590000       0.00530000      -0.28000000
O       -2.69640227       0.91793209       2.39749619      -0.57000000
N       -0.77378067       0.46863356       1.19838928      -0.54000000
C       -0.13890000       0.24000000      -0.00790000       0.15000000
C        1.31580000      -0.00150000      -0.00250000       0.09000000
C       -0.85302206       0.25681268      -1.14678334      -0.15000000
C        1.95950000      -1.21710000      -0.00580000      -0.15000000
C       -2.13134809       0.71685098       1.32542439       0.62000000
C       -2.27326295       0.50568311      -1.10429810      -0.15000000
C       -2.90733325       0.72840716       0.05329415      -0.14000000
C        3.34500000      -0.92820000       0.00050000      -0.15000000
C        3.44920000       0.44360000       0.00700000      -0.01000000
H       -0.22153111       0.45638597       2.04974741       0.37000000
H       -0.40615152       0.08906126      -2.12096590       0.15000000
H        1.51370000      -2.20160000      -0.01230000       0.15000000
H       -2.81669450       0.50861878      -2.04278074       0.15000000
H       -3.97288376       0.91717851       0.09841358       0.15000000
H        4.16520000      -1.63140000       0.00010000       0.15000000
H        4.28320000       1.12990000       0.01300000       0.15000000
