19
Properties=species:S:1:pos:R:3:initial_charges:R:1 pbc="F F F"
O        2.21680000       1.01590000       0.00530000      -0.28000000
O       -3.07078793      -1.36252349       1.26579236      -0.57000000
N       -0.96082429      -0.67077871       0.62881281      -0.54000000
C       -0.13890000       0.24000000      -0.00790000       0.15000000
C        1.31580000      -0.00150000      -0.00250000       0.09000000
C       -0.67851152       1.32024730      -0.59882591      -0.15000000
C        1.95950000      -1.21710000      -0.00580000      -0.15000000
C       -2.33971249      -0.55219510       0.70191793       0.62000000
C       -2.10691614       1.51960233      -0.57155934      -0.15000000
C       -2.92041739       0.64926693       0.03868896      -0.14000000
C        3.34500000      -0.92820000       0.00050000      -0.15000000
C        3.44920000       0.44360000       0.00700000      -0.01000000
H       -0.53933561      -1.47976929       1.07358443       0.37000000
H       -0.08118281       2.06919633      -1.10788313       0.15000000
H        1.51370000      -2.20160000      -0.01230000       0.15000000
H       -2.50619647       2.40087800      -1.06146193       0.15000000
H       -3.99420859       0.78801867       0.06677230       0.15000000
H        4.16520000      -1.63140000       0.00010000       0.15000000
H        4.28320000       1.12990000       0.01300000       0.15000000
