19
Properties=species:S:1:pos:R:3:initial_charges:R:1 pbc="F F F"
O        2.21680000       1.01590000       0.00530000      -0.28000000
O       -2.62329228       1.25166240      -2.37236078      -0.57000000
N       -0.73607591       0.64239845      -1.18770381      -0.54000000
C       -0.13890000       0.24000000      -0.00790000       0.15000000
C        1.31580000      -0.00150000      -0.00250000       0.09000000
C       -0.89287189       0.06682344       1.09157465      -0.15000000
C        1.95950000      -1.21710000      -0.00580000      -0.15000000
C       -2.09244969       0.89190465      -1.32458300       0.62000000
C       -2.31418912       0.30703996       1.03699444      -0.15000000
C       -2.91182124       0.69805540      -0.09508937      -0.14000000
C        3.34500000      -0.92820000       0.00050000      -0.15000000
C        3.44920000       0.44360000       0.00700000      -0.01000000
H       -0.15509573       0.76577561      -2.01061350       0.37000000
H       -0.47829535      -0.25242233       2.04187668       0.15000000
H        1.51370000      -2.20160000      -0.01230000       0.15000000
H       -2.88939441       0.15985985       1.94449266       0.15000000
H       -3.97798563       0.88091059      -0.14917940       0.15000000
H        4.16520000      -1.63140000       0.00010000       0.15000000
H        4.28320000       1.12990000       0.01300000       0.15000000
