19
Properties=species:S:1:pos:R:3:initial_charges:R:1 pbc="F F F"
O        2.21680000       1.01590000       0.00530000      -0.28000000
O       -2.65514187       1.16558837       2.35814177      -0.57000000
N       -0.75312816       0.59260389       1.17906035      -0.54000000
C       -0.13890000       0.24000000      -0.00790000       0.15000000
C        1.31580000      -0.00150000      -0.00250000       0.09000000
C       -0.87244431       0.14019456      -1.13006748      -0.15000000
C        1.95950000      -1.21710000      -0.00580000      -0.15000000
C       -2.10844349       0.85431815       1.30301641       0.62000000
C       -2.29187328       0.39391960      -1.08919381      -0.15000000
C       -2.90612282       0.73562316       0.04993180      -0.14000000
C        3.34500000      -0.92820000       0.00050000      -0.15000000
C        3.44920000       0.44360000       0.00700000      -0.01000000
H       -0.18636260       0.66750767       2.01757480       0.37000000
H       -0.44225125      -0.12768014      -2.08925598       0.15000000
H        1.51370000      -2.20160000      -0.01230000       0.15000000
H       -2.85131063       0.30075869      -2.01354604       0.15000000
H       -3.97083822       0.92939146       0.09355780       0.15000000
H        4.16520000      -1.63140000       0.00010000       0.15000000
H        4.28320000       1.12990000       0.01300000       0.15000000
