19
Properties=species:S:1:pos:R:3:initial_charges:R:1 pbc="F F F"
O        2.21680000       1.01590000       0.00530000      -0.28000000
O       -2.71920388       0.67229550      -2.44541782      -0.57000000
N       -0.78404471       0.35261719      -1.22510429      -0.54000000
C       -0.13890000       0.24000000      -0.00790000       0.15000000
C        1.31580000      -0.00150000      -0.00250000       0.09000000
C       -0.84791430       0.33849015       1.13003965      -0.15000000
C        1.95950000      -1.21710000      -0.00580000      -0.15000000
C       -2.14575148       0.56995729      -1.36387400       0.62000000
C       -2.27120691       0.56681782       1.07590757      -0.15000000
C       -2.91486714       0.67977137      -0.09225935      -0.14000000
C        3.34500000      -0.92820000       0.00050000      -0.15000000
C        3.44920000       0.44360000       0.00700000      -0.01000000
H       -0.23670223       0.27274905      -2.07597299       0.37000000
H       -0.39466624       0.25289254       2.11192801       0.15000000
H        1.51370000      -2.20160000      -0.01230000       0.15000000
H       -2.80932550       0.64372414       2.01430511       0.15000000
H       -3.98304607       0.85049385      -0.14625826       0.15000000
H        4.16520000      -1.63140000       0.00010000       0.15000000
H        4.28320000       1.12990000       0.01300000       0.15000000
