19
Properties=species:S:1:pos:R:3:initial_charges:R:1 pbc="F F F"
O        2.21680000       1.01590000       0.00530000      -0.28000000
O       -3.08185754      -1.48177391      -1.08532106      -0.57000000
N       -0.96580722      -0.72710176      -0.54773260      -0.54000000
C       -0.13890000       0.24000000      -0.00790000       0.15000000
C        1.31580000      -0.00150000      -0.00250000       0.09000000
C       -0.67603183       1.35989966       0.50651461      -0.15000000
C        1.95950000      -1.21710000      -0.00580000      -0.15000000
C       -2.34670498      -0.62350830      -0.60366907       0.62000000
C       -2.10591798       1.54928170       0.48687589      -0.15000000
C       -2.92407491       0.62565547      -0.03197362      -0.14000000
C        3.34500000      -0.92820000       0.00050000      -0.15000000
C        3.44920000       0.44360000       0.00700000      -0.01000000
H       -0.54670081      -1.56892041      -0.92934946       0.37000000
H       -0.07560700       2.14873231       0.94708081       0.15000000
H        1.51370000      -2.20160000      -0.01230000       0.15000000
H       -2.50261901       2.46646827       0.90815161       0.15000000
H       -3.99914214       0.75564494      -0.05200974       0.15000000
H        4.16520000      -1.63140000       0.00010000       0.15000000
H        4.28320000       1.12990000       0.01300000       0.15000000
