19
Properties=species:S:1:pos:R:3:initial_charges:R:1 pbc="F F F"
O        2.21680000       1.01590000       0.00530000      -0.28000000
O       -2.42107818       2.55586643       1.48030901      -0.57000000
N       -0.63581512       1.28947538       0.74187156      -0.54000000
C       -0.13890000       0.24000000      -0.00790000       0.15000000
C        1.31580000      -0.00150000      -0.00250000       0.09000000
C       -0.98338058      -0.51904289      -0.72763236      -0.15000000
C        1.95950000      -1.21710000      -0.00580000      -0.15000000
C       -1.97874422       1.62460393       0.81236544       0.62000000
C       -2.39855395      -0.24018159      -0.70902137      -0.15000000
C       -2.90017995       0.77055060       0.01102223      -0.14000000
C        3.34500000      -0.92820000       0.00050000      -0.15000000
C        3.44920000       0.44360000       0.00700000      -0.01000000
H        0.01371648       1.85615676       1.27752179       0.37000000
H       -0.64817826      -1.35129180      -1.33744107       0.15000000
H        1.51370000      -2.20160000      -0.01230000       0.15000000
H       -3.04926493      -0.87567563      -1.29961317       0.15000000
H       -3.96044950       0.99060878       0.03272798       0.15000000
H        4.16520000      -1.63140000       0.00010000       0.15000000
H        4.28320000       1.12990000       0.01300000       0.15000000
