19
Properties=species:S:1:pos:R:3:initial_charges:R:1 pbc="F F F"
O        2.21680000       1.01590000       0.00530000      -0.28000000
O       -2.96992951      -0.73981809       1.94442401      -0.57000000
N       -0.91052357      -0.36017434       0.96927370      -0.54000000
C       -0.13890000       0.24000000      -0.00790000       0.15000000
C        1.31580000      -0.00150000      -0.00250000       0.09000000
C       -0.72509195       1.03243720      -0.92208298      -0.15000000
C        1.95950000      -1.21710000      -0.00580000      -0.15000000
C       -2.28344560      -0.20486850       1.07746002       0.62000000
C       -2.15109729       1.24650372      -0.88322498      -0.15000000
C       -2.91636512       0.67401741       0.05394925      -0.14000000
C        3.34500000      -0.92820000       0.00050000      -0.15000000
C        3.44920000       0.44360000       0.00700000      -0.01000000
H       -0.45404760      -0.95302966       1.65490663       0.37000000
H       -0.16807812       1.53236895      -1.70736595       0.15000000
H        1.51370000      -2.20160000      -0.01230000       0.15000000
H       -2.58894016       1.88955405      -1.63877513       0.15000000
H       -3.98776982       0.82741882       0.09430077       0.15000000
H        4.16520000      -1.63140000       0.00010000       0.15000000
H        4.28320000       1.12990000       0.01300000       0.15000000
