19
Properties=species:S:1:pos:R:3:initial_charges:R:1 pbc="F F F"
O        2.21680000       1.01590000       0.00530000      -0.28000000
O       -2.90697226      -0.45243272      -2.16304581      -0.57000000
N       -0.87805484      -0.21054008      -1.08546409      -0.54000000
C       -0.13890000       0.24000000      -0.00790000       0.15000000
C        1.31580000      -0.00150000      -0.00250000       0.09000000
C       -0.75940785       0.86883164       1.00543559      -0.15000000
C        1.95950000      -1.21710000      -0.00580000      -0.15000000
C       -2.24994900      -0.05412442      -1.20454244       0.62000000
C       -2.18634007       1.07544603       0.96070756      -0.15000000
C       -2.92022987       0.64788058      -0.07382834      -0.14000000
C        3.34500000      -0.92820000       0.00050000      -0.15000000
C        3.44920000       0.44360000       0.00700000      -0.01000000
H       -0.39683806      -0.68660477      -1.84159442       0.37000000
H       -0.23020339       1.23830697       1.87738520       0.15000000
H        1.51370000      -2.20160000      -0.01230000       0.15000000
H       -2.65154428       1.58922706       1.79478803       0.15000000
H       -3.99216320       0.79618741      -0.11890912       0.15000000
H        4.16520000      -1.63140000       0.00010000       0.15000000
H        4.28320000       1.12990000       0.01300000       0.15000000
