19
Properties=species:S:1:pos:R:3:initial_charges:R:1 pbc="F F F"
O        2.21680000       1.01590000       0.00530000      -0.28000000
O       -2.34164231       3.01223687       0.49106859      -0.57000000
N       -0.59583845       1.51922636       0.24757559      -0.54000000
C       -0.13890000       0.24000000      -0.00790000       0.15000000
C        1.31580000      -0.00150000      -0.00250000       0.09000000
C       -1.02182927      -0.74032429      -0.26617977      -0.15000000
C        1.95950000      -1.21710000      -0.00580000      -0.15000000
C       -1.93497533       1.87594200       0.26190991       0.62000000
C       -2.43592830      -0.45547041      -0.26898121      -0.15000000
C       -2.89913867       0.77605918      -0.02313167      -0.14000000
C        3.34500000      -0.92820000       0.00050000      -0.15000000
C        3.44920000       0.44360000       0.00700000      -0.01000000
H        0.08222471       2.25004058       0.43752609       0.37000000
H       -0.71926807      -1.76029706      -0.47825940       0.15000000
H        1.51370000      -2.20160000      -0.01230000       0.15000000
H       -3.11811744      -1.27205476      -0.47846653       0.15000000
H       -3.95820735       1.00286703      -0.02306827       0.15000000
H        4.16520000      -1.63140000       0.00010000       0.15000000
H        4.28320000       1.12990000       0.01300000       0.15000000
