19
Properties=species:S:1:pos:R:3:initial_charges:R:1 pbc="F F F"
O        2.21680000       1.01590000       0.00530000      -0.28000000
O       -2.33617652       3.04142992       0.32422484      -0.57000000
N       -0.59306442       1.53407033       0.16413858      -0.54000000
C       -0.13890000       0.24000000      -0.00790000       0.15000000
C        1.31580000      -0.00150000      -0.00250000       0.09000000
C       -1.02458905      -0.75520023      -0.18801009      -0.15000000
C        1.95950000      -1.21710000      -0.00580000      -0.15000000
C       -1.93199915       1.89179580       0.16917701       0.62000000
C       -2.43866701      -0.47029666      -0.19426475      -0.15000000
C       -2.89920641       0.77553164      -0.02847490      -0.14000000
C        3.34500000      -0.92820000       0.00050000      -0.15000000
C        3.44920000       0.44360000       0.00700000      -0.01000000
H        0.08702516       2.27578301       0.29559464       0.37000000
H       -0.72433145      -1.78754517      -0.33283686       0.15000000
H        1.51370000      -2.20160000      -0.01230000       0.15000000
H       -3.12309382      -1.29891773      -0.33925863       0.15000000
H       -3.95823646       1.00249350      -0.03193000       0.15000000
H        4.16520000      -1.63140000       0.00010000       0.15000000
H        4.28320000       1.12990000       0.01300000       0.15000000
