19
Properties=species:S:1:pos:R:3:initial_charges:R:1 pbc="F F F"
O        2.21680000       1.01590000       0.00530000      -0.28000000
O       -3.06081927      -1.36001333      -1.30739441      -0.57000000
N       -0.95522899      -0.66586325      -0.65866828      -0.54000000
C       -0.13890000       0.24000000      -0.00790000       0.15000000
C        1.31580000      -0.00150000      -0.00250000       0.09000000
C       -0.68616864       1.30115276       0.60996738      -0.15000000
C        1.95950000      -1.21710000      -0.00580000      -0.15000000
C       -2.33509864      -0.55636035      -0.72728302       0.62000000
C       -2.11574890       1.49226848       0.58545789      -0.15000000
C       -2.92374279       0.62748081      -0.03980938      -0.14000000
C        3.34500000      -0.92820000       0.00050000      -0.15000000
C        3.44920000       0.44360000       0.00700000      -0.01000000
H       -0.52859168      -1.46405229      -1.11781434       0.37000000
H       -0.09436539       2.04004736       1.13974957       0.15000000
H        1.51370000      -2.20160000      -0.01230000       0.15000000
H       -2.52075780       2.36132277       1.09220098       0.15000000
H       -3.99847419       0.75938337      -0.06475718       0.15000000
H        4.16520000      -1.63140000       0.00010000       0.15000000
H        4.28320000       1.12990000       0.01300000       0.15000000
