19
Properties=species:S:1:pos:R:3:initial_charges:R:1 pbc="F F F"
O        2.21680000       1.01590000       0.00530000      -0.28000000
O       -2.40140643       2.60902964      -1.44146333      -0.57000000
N       -0.62528288       1.32023075      -0.71994904      -0.54000000
C       -0.13890000       0.24000000      -0.00790000       0.15000000
C        1.31580000      -0.00150000      -0.00250000       0.09000000
C       -0.99599758      -0.56436022       0.64455431      -0.15000000
C        1.95950000      -1.21710000      -0.00580000      -0.15000000
C       -1.96886573       1.64781905      -0.81055880       0.62000000
C       -2.41233722      -0.29384238       0.60420866      -0.15000000
C       -2.90369955       0.74734706      -0.07854941      -0.14000000
C        3.34500000      -0.92820000       0.00050000      -0.15000000
C        3.44920000       0.44360000       0.00700000      -0.01000000
H        0.03302832       1.91685149      -1.21046950       0.37000000
H       -0.67044072      -1.42833822       1.21413331       0.15000000
H        1.51370000      -2.20160000      -0.01230000       0.15000000
H       -3.07278720      -0.96270112       1.14505055       0.15000000
H       -3.96486407       0.96066480      -0.11719749       0.15000000
H        4.16520000      -1.63140000       0.00010000       0.15000000
H        4.28320000       1.12990000       0.01300000       0.15000000
