19
Properties=species:S:1:pos:R:3:initial_charges:R:1 pbc="F F F"
O        2.21680000       1.01590000       0.00530000      -0.28000000
O       -2.45556562       2.27434986      -1.81920386      -0.57000000
N       -0.65229033       1.15331155      -0.90943923      -0.54000000
C       -0.13890000       0.24000000      -0.00790000       0.15000000
C        1.31580000      -0.00150000      -0.00250000       0.09000000
C       -0.97100012      -0.40976408       0.82440058      -0.15000000
C        1.95950000      -1.21710000      -0.00580000      -0.15000000
C       -1.99908483       1.46111650      -1.01961985       0.62000000
C       -2.38863527      -0.14719498       0.77756341      -0.15000000
C       -2.90589436       0.73393417      -0.08714776      -0.14000000
C        3.34500000      -0.92820000       0.00050000      -0.15000000
C        3.44920000       0.44360000       0.00700000      -0.01000000
H       -0.01275816       1.63381817      -1.53398086       0.37000000
H       -0.62380267      -1.13995073       1.54768953       0.15000000
H        1.51370000      -2.20160000      -0.01230000       0.15000000
H       -3.02838752      -0.68807378       1.46621668       0.15000000
H       -3.96834632       0.93934342      -0.13265745       0.15000000
H        4.16520000      -1.63140000       0.00010000       0.15000000
H        4.28320000       1.12990000       0.01300000       0.15000000
