19
Properties=species:S:1:pos:R:3:initial_charges:R:1 pbc="F F F"
O        2.21680000       1.01590000       0.00530000      -0.28000000
O       -3.07765450      -1.40551083       1.19308155      -0.57000000
N       -0.96424257      -0.69218394       0.59236940      -0.54000000
C       -0.13890000       0.24000000      -0.00790000       0.15000000
C        1.31580000      -0.00150000      -0.00250000       0.09000000
C       -0.67537092       1.33993568      -0.56436086      -0.15000000
C        1.95950000      -1.21710000      -0.00580000      -0.15000000
C       -2.34355273      -0.57622804       0.66162844       0.62000000
C       -2.10395307       1.53819181      -0.53841480      -0.15000000
C       -2.92073068       0.64733859       0.03684674      -0.14000000
C        3.34500000      -0.92820000       0.00050000      -0.15000000
C        3.44920000       0.44360000       0.00700000      -0.01000000
H       -0.54511890      -1.51599532       1.01142836       0.37000000
H       -0.07531299       2.10598430      -1.04390804       0.15000000
H        1.51370000      -2.20160000      -0.01230000       0.15000000
H       -2.50062726       2.43579988      -0.99996164       0.15000000
H       -3.99469617       0.78500966       0.06355023       0.15000000
H        4.16520000      -1.63140000       0.00010000       0.15000000
H        4.28320000       1.12990000       0.01300000       0.15000000
