19
Properties=species:S:1:pos:R:3:initial_charges:R:1 pbc="F F F"
O        2.21680000       1.01590000       0.00530000      -0.28000000
O       -3.05298512      -1.31441110      -1.37839432      -0.57000000
N       -0.95129268      -0.64294529      -0.69412618      -0.54000000
C       -0.13890000       0.24000000      -0.00790000       0.15000000
C        1.31580000      -0.00150000      -0.00250000       0.09000000
C       -0.68992983       1.27923539       0.64299491      -0.15000000
C        1.95950000      -1.21710000      -0.00580000      -0.15000000
C       -2.33077252      -0.53118555      -0.76681891       0.62000000
C       -2.11938992       1.47103962       0.61690607      -0.15000000
C       -2.92360261       0.62826786      -0.04237284      -0.14000000
C        3.34500000      -0.92820000       0.00050000      -0.15000000
C        3.44920000       0.44360000       0.00700000      -0.01000000
H       -0.52185852      -1.42484092      -1.17803296       0.37000000
H       -0.10133021       1.99946977       1.20127658       0.15000000
H        1.51370000      -2.20160000      -0.01230000       0.15000000
H       -2.52748398       2.32212044       1.15094428       0.15000000
H       -3.99820375       0.76091955      -0.06890936       0.15000000
H        4.16520000      -1.63140000       0.00010000       0.15000000
H        4.28320000       1.12990000       0.01300000       0.15000000
