19
Properties=species:S:1:pos:R:3:initial_charges:R:1 pbc="F F F"
O        2.21680000       1.01590000       0.00530000      -0.28000000
O       -2.48023508       2.20768023       1.84486149      -0.57000000
N       -0.66549835       1.11474261       0.92376526      -0.54000000
C       -0.13890000       0.24000000      -0.00790000       0.15000000
C        1.31580000      -0.00150000      -0.00250000       0.09000000
C       -0.95517771      -0.35293363      -0.89639797      -0.15000000
C        1.95950000      -1.21710000      -0.00580000      -0.15000000
C       -2.01147301       1.43200345       1.01561760       0.62000000
C       -2.37135028      -0.07990136      -0.86930024      -0.15000000
C       -2.90148058       0.76303271       0.02518005      -0.14000000
C        3.34500000      -0.92820000       0.00050000      -0.15000000
C        3.44920000       0.44360000       0.00700000      -0.01000000
H       -0.03697628       1.55770360       1.58609888       0.37000000
H       -0.59588429      -1.04333022      -1.65212696       0.15000000
H        1.51370000      -2.20160000      -0.01230000       0.15000000
H       -2.99888929      -0.57893895      -1.59952788       0.15000000
H       -3.96281021       0.97689483       0.05535745       0.15000000
H        4.16520000      -1.63140000       0.00010000       0.15000000
H        4.28320000       1.12990000       0.01300000       0.15000000
