19
Properties=species:S:1:pos:R:3:initial_charges:R:1 pbc="F F F"
O        2.21680000       1.01590000       0.00530000      -0.28000000
O       -2.60997159       1.33239431      -2.35029631      -0.57000000
N       -0.72941657       0.68276113      -1.17654595      -0.54000000
C       -0.13890000       0.24000000      -0.00790000       0.15000000
C        1.31580000      -0.00150000      -0.00250000       0.09000000
C       -0.89910204       0.02905077       1.08063182      -0.15000000
C        1.95950000      -1.21710000      -0.00580000      -0.15000000
C       -2.08504259       0.93679210      -1.31250721       0.62000000
C       -2.32013855       0.27096223       1.02622825      -0.15000000
C       -2.91138139       0.70070417      -0.09512127      -0.14000000
C        3.34500000      -0.92820000       0.00050000      -0.15000000
C        3.44920000       0.44360000       0.00700000      -0.01000000
H       -0.14377225       0.83441371      -1.99138488       0.37000000
H       -0.48988945      -0.32271097       2.02173449       0.15000000
H        1.51370000      -2.20160000      -0.01230000       0.15000000
H       -2.90048597       0.09260873       1.92481772       0.15000000
H       -3.97726069       0.88528186      -0.14897911       0.15000000
H        4.16520000      -1.63140000       0.00010000       0.15000000
H        4.28320000       1.12990000       0.01300000       0.15000000
