19
Properties=species:S:1:pos:R:3:initial_charges:R:1 pbc="F F F"
O        2.21680000       1.01590000       0.00530000      -0.28000000
O       -2.40949656       2.55878274      -1.50922557      -0.57000000
N       -0.62931449       1.29518618      -0.75392706      -0.54000000
C       -0.13890000       0.24000000      -0.00790000       0.15000000
C        1.31580000      -0.00150000      -0.00250000       0.09000000
C       -0.99227665      -0.54122698       0.67674659      -0.15000000
C        1.95950000      -1.21710000      -0.00580000      -0.15000000
C       -1.97338383       1.61976473      -0.84808365       0.62000000
C       -2.40881587      -0.27193812       0.63520403      -0.15000000
C       -2.90404340       0.74523943      -0.08017733      -0.14000000
C        3.34500000      -0.92820000       0.00050000      -0.15000000
C        3.44920000       0.44360000       0.00700000      -0.01000000
H        0.02619881       1.87441681      -1.26845057       0.37000000
H       -0.66349380      -1.38515714       1.27386402       0.15000000
H        1.51370000      -2.20160000      -0.01230000       0.15000000
H       -3.06618232      -0.92163099       1.20251757       0.15000000
H       -3.96540529       0.95734021      -0.12008329       0.15000000
H        4.16520000      -1.63140000       0.00010000       0.15000000
H        4.28320000       1.12990000       0.01300000       0.15000000
