19
Properties=species:S:1:pos:R:3:initial_charges:R:1 pbc="F F F"
O        2.21680000       1.01590000       0.00530000      -0.28000000
O       -3.11341126      -1.63308387       0.64798125      -0.57000000
N       -0.98200347      -0.80527447       0.31929786      -0.54000000
C       -0.13890000       0.24000000      -0.00790000       0.15000000
C        1.31580000      -0.00150000      -0.00250000       0.09000000
C       -0.65920916       1.44304993      -0.30665989      -0.15000000
C        1.95950000      -1.21710000      -0.00580000      -0.15000000
C       -2.36360998      -0.70380340       0.35937490       0.62000000
C       -2.08880485       1.63497252      -0.29092690      -0.15000000
C       -2.92259703       0.63576915       0.02220920      -0.14000000
C        3.34500000      -0.92820000       0.00050000      -0.15000000
C        3.44920000       0.44360000       0.00700000      -0.01000000
H       -0.57508866      -1.70692905       0.54596858       0.37000000
H       -0.04503634       2.29906022      -0.56531724       0.15000000
H        1.51370000      -2.20160000      -0.01230000       0.15000000
H       -2.47202880       2.61834331      -0.54032103       0.15000000
H       -3.99754423       0.76728962       0.03830725       0.15000000
H        4.16520000      -1.63140000       0.00010000       0.15000000
H        4.28320000       1.12990000       0.01300000       0.15000000
