19
Properties=species:S:1:pos:R:3:initial_charges:R:1 pbc="F F F"
O        2.21680000       1.01590000       0.00530000      -0.28000000
O       -3.03038656      -1.11159499       1.60419091      -0.57000000
N       -0.94069079      -0.54570836       0.79849600      -0.54000000
C       -0.13890000       0.24000000      -0.00790000       0.15000000
C        1.31580000      -0.00150000      -0.00250000       0.09000000
C       -0.69709352       1.20472198      -0.75959125      -0.15000000
C        1.95950000      -1.21710000      -0.00580000      -0.15000000
C       -2.31714949      -0.41209433       0.88931364       0.62000000
C       -2.12450143       1.41021442      -0.72634740      -0.15000000
C       -2.91870023       0.65979221       0.04681865      -0.14000000
C        3.34500000      -0.92820000       0.00050000      -0.15000000
C        3.44920000       0.44360000       0.00700000      -0.01000000
H       -0.50522969      -1.26785431       1.36313669       0.37000000
H       -0.11587511       1.85355390      -1.40617287       0.15000000
H        1.51370000      -2.20160000      -0.01230000       0.15000000
H       -2.53918063       2.19577748      -1.34844705       0.15000000
H       -3.99150581       0.80462140       0.08118370       0.15000000
H        4.16520000      -1.63140000       0.00010000       0.15000000
H        4.28320000       1.12990000       0.01300000       0.15000000
