19
Properties=species:S:1:pos:R:3:initial_charges:R:1 pbc="F F F"
O        2.21680000       1.01590000       0.00530000      -0.28000000
O       -2.58838266       1.56496701       2.23505291      -0.57000000
N       -0.71969842       0.79260731       1.11805691      -0.54000000
C       -0.13890000       0.24000000      -0.00790000       0.15000000
C        1.31580000      -0.00150000      -0.00250000       0.09000000
C       -0.90393816      -0.04828277      -1.07510097      -0.15000000
C        1.95950000      -1.21710000      -0.00580000      -0.15000000
C       -2.07140523       1.07587341       1.23376395       0.62000000
C       -2.32208524       0.21307890      -1.03802570      -0.15000000
C       -2.90424818       0.74675332       0.04269114      -0.14000000
C        3.34500000      -0.92820000       0.00050000      -0.15000000
C        3.44920000       0.44360000       0.00700000      -0.01000000
H       -0.12940799       1.00828411       1.91491384       0.37000000
H       -0.50076389      -0.47782906      -1.98603785       0.15000000
H        1.51370000      -2.20160000      -0.01230000       0.15000000
H       -2.90746306      -0.03531120      -1.91649670       0.15000000
H       -3.96763885       0.94841997       0.08268014       0.15000000
H        4.16520000      -1.63140000       0.00010000       0.15000000
H        4.28320000       1.12990000       0.01300000       0.15000000
