19
Properties=species:S:1:pos:R:3:initial_charges:R:1 pbc="F F F"
O        2.21680000       1.01590000       0.00530000      -0.28000000
O       -2.49122737       2.14265726       1.89808844      -0.57000000
N       -0.67101053       1.08213279       0.95030215      -0.54000000
C       -0.13890000       0.24000000      -0.00790000       0.15000000
C        1.31580000      -0.00150000      -0.00250000       0.09000000
C       -0.94995395      -0.32201652      -0.92093732      -0.15000000
C        1.95950000      -1.21710000      -0.00580000      -0.15000000
C       -2.01755974       1.39600367       1.04532518       0.62000000
C       -2.36631996      -0.05012065      -0.89255351      -0.15000000
C       -2.90174273       0.76150257       0.02737103      -0.14000000
C        3.34500000      -0.92820000       0.00050000      -0.15000000
C        3.44920000       0.44360000       0.00700000      -0.01000000
H       -0.04638307       1.50204655       1.63107614       0.37000000
H       -0.58619251      -0.98597470      -1.69792036       0.15000000
H        1.51370000      -2.20160000      -0.01230000       0.15000000
H       -2.98956379      -0.52374025      -1.64310514       0.15000000
H       -3.96327581       0.97416776       0.05882443       0.15000000
H        4.16520000      -1.63140000       0.00010000       0.15000000
H        4.28320000       1.12990000       0.01300000       0.15000000
