19
Properties=species:S:1:pos:R:3:initial_charges:R:1 pbc="F F F"
O        2.21680000       1.01590000       0.00530000      -0.28000000
O       -2.66395855       1.00561176      -2.42125006      -0.57000000
N       -0.75641033       0.51935699      -1.21252495      -0.54000000
C       -0.13890000       0.24000000      -0.00790000       0.15000000
C        1.31580000      -0.00150000      -0.00250000       0.09000000
C       -0.87383070       0.18207288       1.11630174      -0.15000000
C        1.95950000      -1.21710000      -0.00580000      -0.15000000
C       -2.11505595       0.75513862      -1.35119076       0.62000000
C       -2.29599507       0.41718280       1.06155248      -0.15000000
C       -2.91313797       0.69013861      -0.09443226      -0.14000000
C        3.34500000      -0.92820000       0.00050000      -0.15000000
C        3.44920000       0.44360000       0.00700000      -0.01000000
H       -0.18968097       0.55648702      -2.05358348       0.37000000
H       -0.44286799      -0.03800790       2.08722970       0.15000000
H        1.51370000      -2.20160000      -0.01230000       0.15000000
H       -2.85548870       0.36509159       1.98909198       0.15000000
H       -3.98016451       0.86779327      -0.14885169       0.15000000
H        4.16520000      -1.63140000       0.00010000       0.15000000
H        4.28320000       1.12990000       0.01300000       0.15000000
