19
Properties=species:S:1:pos:R:3:initial_charges:R:1 pbc="F F F"
O        2.21680000       1.01590000       0.00530000      -0.28000000
O       -2.44912559       2.39120266       1.67183970      -0.57000000
N       -0.64989291       1.20681378       0.83746262      -0.54000000
C       -0.13890000       0.24000000      -0.00790000       0.15000000
C        1.31580000      -0.00150000      -0.00250000       0.09000000
C       -0.96998745      -0.44035355      -0.81643011      -0.15000000
C        1.95950000      -1.21710000      -0.00580000      -0.15000000
C       -1.99425485       1.53356088       0.91911068       0.62000000
C       -2.38562456      -0.16418728      -0.79342078      -0.15000000
C       -2.90077023       0.76715776       0.01830106      -0.14000000
C        3.34500000      -0.92820000       0.00050000      -0.15000000
C        3.44920000       0.44360000       0.00700000      -0.01000000
H       -0.01033430       1.71491174       1.43974287       0.37000000
H       -0.62335218      -1.20545063      -1.50296921       0.15000000
H        1.51370000      -2.20160000      -0.01230000       0.15000000
H       -3.02533570      -0.73506490      -1.45745733       0.15000000
H       -3.96153406       0.98433700       0.04440735       0.15000000
H        4.16520000      -1.63140000       0.00010000       0.15000000
H        4.28320000       1.12990000       0.01300000       0.15000000
