19
Properties=species:S:1:pos:R:3:initial_charges:R:1 pbc="F F F"
O        2.21680000       1.01590000       0.00530000      -0.28000000
O       -2.78839133       0.25634750      -2.40920570      -0.57000000
N       -0.81866882       0.14444687      -1.20759353      -0.54000000
C       -0.13890000       0.24000000      -0.00790000       0.15000000
C        1.31580000      -0.00150000      -0.00250000       0.09000000
C       -0.81538057       0.53414658       1.11600394      -0.15000000
C        1.95950000      -1.21710000      -0.00580000      -0.15000000
C       -2.18416973       0.33901145      -1.34283770       0.62000000
C       -2.24005057       0.75422447       1.06397732      -0.15000000
C       -2.91693889       0.66739791      -0.08752358      -0.14000000
C        3.34500000      -0.92820000       0.00050000      -0.15000000
C        3.44920000       0.44360000       0.00700000      -0.01000000
H       -0.29564839      -0.08168006      -2.04738904       0.37000000
H       -0.33418426       0.61660478       2.08477443       0.15000000
H        1.51370000      -2.20160000      -0.01230000       0.15000000
H       -2.75135148       0.99239797       1.99021751       0.15000000
H       -3.98653143       0.82964768      -0.13963005       0.15000000
H        4.16520000      -1.63140000       0.00010000       0.15000000
H        4.28320000       1.12990000       0.01300000       0.15000000
