19
Properties=species:S:1:pos:R:3:initial_charges:R:1 pbc="F F F"
O        2.21680000       1.01590000       0.00530000      -0.28000000
O       -2.57547909       1.64195534       2.20206474      -0.57000000
N       -0.71323477       0.83117520       1.10166391      -0.54000000
C       -0.13890000       0.24000000      -0.00790000       0.15000000
C        1.31580000      -0.00150000      -0.00250000       0.09000000
C       -0.91003608      -0.08468007      -1.06015483      -0.15000000
C        1.95950000      -1.21710000      -0.00580000      -0.15000000
C       -2.06424958       1.11856267       1.21527080       0.62000000
C       -2.32794032       0.17812388      -1.02399808      -0.15000000
C       -2.90389882       0.74882021       0.04101294      -0.14000000
C        3.34500000      -0.92820000       0.00050000      -0.15000000
C        3.44920000       0.44360000       0.00700000      -0.01000000
H       -0.11839144       1.07402455       1.88723749       0.37000000
H       -0.51208952      -0.54542437      -1.95805166       0.15000000
H        1.51370000      -2.20160000      -0.01230000       0.15000000
H       -2.91833873      -0.10023027      -1.89003782       0.15000000
H       -3.96703753       0.95198459       0.08011001       0.15000000
H        4.16520000      -1.63140000       0.00010000       0.15000000
H        4.28320000       1.12990000       0.01300000       0.15000000
