19
Properties=species:S:1:pos:R:3:initial_charges:R:1 pbc="F F F"
O        2.21680000       1.01590000       0.00530000      -0.28000000
O       -3.12181415      -1.68923846       0.40026998      -0.57000000
N       -0.98614905      -0.83301903       0.19527435      -0.54000000
C       -0.13890000       0.24000000      -0.00790000       0.15000000
C        1.31580000      -0.00150000      -0.00250000       0.09000000
C       -0.65554944       1.46770563      -0.18989032      -0.15000000
C        1.95950000      -1.21710000      -0.00580000      -0.15000000
C       -2.36836639      -0.73552773       0.22191616       0.62000000
C       -2.08544732       1.65770068      -0.17895493      -0.15000000
C       -2.92320442       0.63195251       0.01514481      -0.14000000
C        3.34500000      -0.92820000       0.00050000      -0.15000000
C        3.44920000       0.44360000       0.00700000      -0.01000000
H       -0.58202676      -1.75344532       0.33470483       0.37000000
H       -0.03812940       2.34551659      -0.34833880       0.15000000
H        1.51370000      -2.20160000      -0.01230000       0.15000000
H       -2.46559729       2.66173888      -0.33215230       0.15000000
H       -3.99843561       0.76165170       0.02629316       0.15000000
H        4.16520000      -1.63140000       0.00010000       0.15000000
H        4.28320000       1.12990000       0.01300000       0.15000000
