19
Properties=species:S:1:pos:R:3:initial_charges:R:1 pbc="F F F"
O        2.21680000       1.01590000       0.00530000      -0.28000000
O       -2.71025663       0.83464104       2.40474745      -0.57000000
N       -0.78071394       0.42694873       1.20189571      -0.54000000
C       -0.13890000       0.24000000      -0.00790000       0.15000000
C        1.31580000      -0.00150000      -0.00250000       0.09000000
C       -0.84650738       0.29599169      -1.14959390      -0.15000000
C        1.95950000      -1.21710000      -0.00580000      -0.15000000
C       -2.13904111       0.67060548       1.32963678       0.62000000
C       -2.26702408       0.54321015      -1.10668706      -0.15000000
C       -2.90774810       0.72592945       0.05424246      -0.14000000
C        3.34500000      -0.92820000       0.00050000      -0.15000000
C        3.44920000       0.44360000       0.00700000      -0.01000000
H       -0.23333472       0.38541370       2.05547117       0.37000000
H       -0.39404037       0.16189242      -2.12640324       0.15000000
H        1.51370000      -2.20160000      -0.01230000       0.15000000
H       -2.80508556       0.57843859      -2.04760413       0.15000000
H       -3.97358168       0.91300419       0.09974084       0.15000000
H        4.16520000      -1.63140000       0.00010000       0.15000000
H        4.28320000       1.12990000       0.01300000       0.15000000
