19
Properties=species:S:1:pos:R:3:initial_charges:R:1 pbc="F F F"
O        2.21680000       1.01590000       0.00530000      -0.28000000
O       -2.33867188       3.02827003       0.40790587      -0.57000000
N       -0.59433265       1.52736680       0.20598885      -0.54000000
C       -0.13890000       0.24000000      -0.00790000       0.15000000
C        1.31580000      -0.00150000      -0.00250000       0.09000000
C       -1.02332041      -0.74843536      -0.22722695      -0.15000000
C        1.95950000      -1.21710000      -0.00580000      -0.15000000
C       -1.93335520       1.88466739       0.21568421       0.62000000
C       -2.43740398      -0.46352691      -0.23175454      -0.15000000
C       -2.89916488       0.77584141      -0.02580792      -0.14000000
C        3.34500000      -0.92820000       0.00050000      -0.15000000
C        3.44920000       0.44360000       0.00700000      -0.01000000
H        0.08482698       2.26413393       0.36678886       0.37000000
H       -0.72200674      -1.77517331      -0.40578996       0.15000000
H        1.51370000      -2.20160000      -0.01230000       0.15000000
H       -3.12080374      -1.28668494      -0.40910097       0.15000000
H       -3.95820922       1.00275656      -0.02750240       0.15000000
H        4.16520000      -1.63140000       0.00010000       0.15000000
H        4.28320000       1.12990000       0.01300000       0.15000000
