19
Properties=species:S:1:pos:R:3:initial_charges:R:1 pbc="F F F"
O        2.21680000       1.01590000       0.00530000      -0.28000000
O       -2.38643149       2.70237761      -1.30081891      -0.57000000
N       -0.61782390       1.36673722      -0.64944170      -0.54000000
C       -0.13890000       0.24000000      -0.00790000       0.15000000
C        1.31580000      -0.00150000      -0.00250000       0.09000000
C       -1.00286748      -0.60723408       0.57781567      -0.15000000
C        1.95950000      -1.21710000      -0.00580000      -0.15000000
C       -1.96049719       1.69996985      -0.73264954       0.62000000
C       -2.41882955      -0.33438552       0.53999052      -0.15000000
C       -2.90304161       0.75138794      -0.07507503      -0.14000000
C        3.34500000      -0.92820000       0.00050000      -0.15000000
C        3.44920000       0.44360000       0.00700000      -0.01000000
H        0.04565649       1.99560816      -1.09018580       0.37000000
H       -0.68327310      -1.50840482       1.09027662       0.15000000
H        1.51370000      -2.20160000      -0.01230000       0.15000000
H       -3.08497613      -1.03878583       1.02593813       0.15000000
H       -3.96383402       0.96700614      -0.11108218       0.15000000
H        4.16520000      -1.63140000       0.00010000       0.15000000
H        4.28320000       1.12990000       0.01300000       0.15000000
