19
Properties=species:S:1:pos:R:3:initial_charges:R:1 pbc="F F F"
O        2.21680000       1.01590000       0.00530000      -0.28000000
O       -2.64154516       1.24706623       2.33921002      -0.57000000
N       -0.74632104       0.63339812       1.16970698      -0.54000000
C       -0.13890000       0.24000000      -0.00790000       0.15000000
C        1.31580000      -0.00150000      -0.00250000       0.09000000
C       -0.87885150       0.10178603      -1.12175678      -0.15000000
C        1.95950000      -1.21710000      -0.00580000      -0.15000000
C       -2.10089778       0.89953134       1.29232049       0.62000000
C       -2.29801611       0.35708894      -1.08153370      -0.15000000
C       -2.90573235       0.73794634       0.04864309      -0.14000000
C        3.34500000      -0.92820000       0.00050000      -0.15000000
C        3.44920000       0.44360000       0.00700000      -0.01000000
H       -0.17476816       0.73699740       2.00189370       0.37000000
H       -0.45415772      -0.19904983      -2.07359630       0.15000000
H        1.51370000      -2.20160000      -0.01230000       0.15000000
H       -2.86273224       0.23228649      -1.99891921       0.15000000
H       -3.97017521       0.93334257       0.09165444       0.15000000
H        4.16520000      -1.63140000       0.00010000       0.15000000
H        4.28320000       1.12990000       0.01300000       0.15000000
