19
Properties=species:S:1:pos:R:3:initial_charges:R:1 pbc="F F F"
O        2.21680000       1.01590000       0.00530000      -0.28000000
O       -2.51406582       2.00730985       1.99747872      -0.57000000
N       -0.68246044       1.01427061       0.99983393      -0.54000000
C       -0.13890000       0.24000000      -0.00790000       0.15000000
C        1.31580000      -0.00150000      -0.00250000       0.09000000
C       -0.93911361      -0.25774094      -0.96665981      -0.15000000
C        1.95950000      -1.21710000      -0.00580000      -0.15000000
C       -2.03021005       1.32104432       1.10082885       0.62000000
C       -2.35588749       0.01175272      -0.93582841      -0.15000000
C       -2.90230322       0.75822064       0.03158384      -0.14000000
C        3.34500000      -0.92820000       0.00050000      -0.15000000
C        3.44920000       0.44360000       0.00700000      -0.01000000
H       -0.06591756       1.38625476       1.71498631       0.37000000
H       -0.56607555      -0.86670679      -1.78328010       0.15000000
H        1.51370000      -2.20160000      -0.01230000       0.15000000
H       -2.97021545      -0.40900835      -1.72426827       0.15000000
H       -3.96426397       0.96836381       0.06545830       0.15000000
H        4.16520000      -1.63140000       0.00010000       0.15000000
H        4.28320000       1.12990000       0.01300000       0.15000000
