19
Properties=species:S:1:pos:R:3:initial_charges:R:1 pbc="F F F"
O        2.21680000       1.01590000       0.00530000      -0.28000000
O       -2.37956491       2.74536495      -1.22810810      -0.57000000
N       -0.61440562       1.38814245      -0.61299828      -0.54000000
C       -0.13890000       0.24000000      -0.00790000       0.15000000
C        1.31580000      -0.00150000      -0.00250000       0.09000000
C       -1.00600808      -0.62692246       0.54335063      -0.15000000
C        1.95950000      -1.21710000      -0.00580000      -0.15000000
C       -1.95665695       1.72400279      -0.69236004       0.62000000
C       -2.42179262      -0.35297501       0.50684598      -0.15000000
C       -2.90272831       0.75331629      -0.07323281      -0.14000000
C        3.34500000      -0.92820000       0.00050000      -0.15000000
C        3.44920000       0.44360000       0.00700000      -0.01000000
H        0.05143977       2.03183419      -1.02802972       0.37000000
H       -0.68914292      -1.54519280       1.02630152       0.15000000
H        1.51370000      -2.20160000      -0.01230000       0.15000000
H       -3.09054535      -1.07370770       0.96443784       0.15000000
H       -3.96334645       0.97001515      -0.10786011       0.15000000
H        4.16520000      -1.63140000       0.00010000       0.15000000
H        4.28320000       1.12990000       0.01300000       0.15000000
