19
Properties=species:S:1:pos:R:3:initial_charges:R:1 pbc="F F F"
O        2.21680000       1.01590000       0.00530000      -0.28000000
O       -3.12502648      -1.71234151       0.23241625      -0.57000000
N       -0.98771658      -0.84433988       0.11125558      -0.54000000
C       -0.13890000       0.24000000      -0.00790000       0.15000000
C        1.31580000      -0.00150000      -0.00250000       0.09000000
C       -0.65423497       1.47739034      -0.11087205      -0.15000000
C        1.95950000      -1.21710000      -0.00580000      -0.15000000
C       -2.37021096      -0.74872218       0.12873839       0.62000000
C       -2.08428752       1.66637994      -0.10323708      -0.15000000
C       -2.92353986       0.62982203       0.01022735      -0.14000000
C        3.34500000      -0.92820000       0.00050000      -0.15000000
C        3.44920000       0.44360000       0.00700000      -0.01000000
H       -0.58461500      -1.77223500       0.19162967       0.37000000
H       -0.03561625       2.36393881      -0.20147111       0.15000000
H        1.51370000      -2.20160000      -0.01230000       0.15000000
H       -2.46331546       2.67863283      -0.19131689       0.15000000
H       -3.99891219       0.75859506       0.01798049       0.15000000
H        4.16520000      -1.63140000       0.00010000       0.15000000
H        4.28320000       1.12990000       0.01300000       0.15000000
