19
Properties=species:S:1:pos:R:3:initial_charges:R:1 pbc="F F F"
O        2.21680000       1.01590000       0.00530000      -0.28000000
O       -2.40423430       2.65426522       1.34336776      -0.57000000
N       -0.62735552       1.33890379       0.67349729      -0.54000000
C       -0.13890000       0.24000000      -0.00790000       0.15000000
C        1.31580000      -0.00150000      -0.00250000       0.09000000
C       -0.99144918      -0.56622217      -0.66400514      -0.15000000
C        1.95950000      -1.21710000      -0.00580000      -0.15000000
C       -1.96943717       1.67896031       0.73608730       0.62000000
C       -2.40635577      -0.28582282      -0.64847489      -0.15000000
C       -2.89985639       0.77238701       0.00598677      -0.14000000
C        3.34500000      -0.92820000       0.00050000      -0.15000000
C        3.44920000       0.44360000       0.00700000      -0.01000000
H        0.02817939       1.94067979       1.16143160       0.37000000
H       -0.66312570      -1.43867827      -1.21888310       0.15000000
H        1.51370000      -2.20160000      -0.01230000       0.15000000
H       -3.06368862      -0.96002827      -1.18646808       0.15000000
H       -3.95983887       0.99410526       0.02459949       0.15000000
H        4.16520000      -1.63140000       0.00010000       0.15000000
H        4.28320000       1.12990000       0.01300000       0.15000000
