19
Properties=species:S:1:pos:R:3:initial_charges:R:1 pbc="F F F"
O        2.21680000       1.01590000       0.00530000      -0.28000000
O       -2.37312360       2.78582369      -1.15392237      -0.57000000
N       -0.61120046       1.40828040      -0.57582059      -0.54000000
C       -0.13890000       0.24000000      -0.00790000       0.15000000
C        1.31580000      -0.00150000      -0.00250000       0.09000000
C       -1.00894727      -0.64541269       0.50821080      -0.15000000
C        1.95950000      -1.21710000      -0.00580000      -0.15000000
C       -1.95305240       1.74663450      -0.65124574       0.62000000
C       -2.42456207      -0.37041244       0.47306470      -0.15000000
C       -2.90242599       0.75518007      -0.07132353      -0.14000000
C        3.34500000      -0.92820000       0.00050000      -0.15000000
C        3.44920000       0.44360000       0.00700000      -0.01000000
H        0.05685965       2.06589899      -0.96463127       0.37000000
H       -0.69463882      -1.57975657       0.96106531       0.15000000
H        1.51370000      -2.20160000      -0.01230000       0.15000000
H       -3.09575519      -1.10649168       0.90174090       0.15000000
H       -3.96287797       0.97291147      -0.10453362       0.15000000
H        4.16520000      -1.63140000       0.00010000       0.15000000
H        4.28320000       1.12990000       0.01300000       0.15000000
