19
Properties=species:S:1:pos:R:3:initial_charges:R:1 pbc="F F F"
O        2.21680000       1.01590000       0.00530000      -0.28000000
O       -2.69149080       0.83936637      -2.43923313      -0.57000000
N       -0.77018089       0.43620200      -1.22176566      -0.54000000
C       -0.13890000       0.24000000      -0.00790000       0.15000000
C        1.31580000      -0.00150000      -0.00250000       0.09000000
C       -0.86092179       0.26004654       1.12593902      -0.15000000
C        1.95950000      -1.21710000      -0.00580000      -0.15000000
C       -2.13035561       0.66276446      -1.36080982       0.62000000
C       -2.28365160       0.49175464       1.07137830      -0.15000000
C       -2.91400811       0.68491745      -0.09352932      -0.14000000
C        3.34500000      -0.92820000       0.00050000      -0.15000000
C        3.44920000       0.44360000       0.00700000      -0.01000000
H       -0.21310944       0.41500068      -2.06979994       0.37000000
H       -0.41885634       0.10701999       2.10472731       0.15000000
H        1.51370000      -2.20160000      -0.01230000       0.15000000
H       -2.83249702       0.50397653       2.00662986       0.15000000
H       -3.98161160       0.85909870      -0.14786119       0.15000000
H        4.16520000      -1.63140000       0.00010000       0.15000000
H        4.28320000       1.12990000       0.01300000       0.15000000
