19
Properties=species:S:1:pos:R:3:initial_charges:R:1 pbc="F F F"
O        2.21680000       1.01590000       0.00530000      -0.28000000
O       -2.46954541       2.27082968       1.78936554      -0.57000000
N       -0.66013703       1.14641824       0.89609034      -0.54000000
C       -0.13890000       0.24000000      -0.00790000       0.15000000
C        1.31580000      -0.00150000      -0.00250000       0.09000000
C       -0.96026198      -0.38298640      -0.87077930      -0.15000000
C        1.95950000      -1.21710000      -0.00580000      -0.15000000
C       -2.00555518       1.46695775       0.98465393       0.62000000
C       -2.37624843      -0.10886271      -0.84500709      -0.15000000
C       -2.90123091       0.76448645       0.02293623      -0.14000000
C        3.34500000      -0.92820000       0.00050000      -0.15000000
C        3.44920000       0.44360000       0.00700000      -0.01000000
H       -0.02782518       1.61177707       1.53917909       0.37000000
H       -0.60531577      -1.09907298      -1.60433141       0.15000000
H        1.51370000      -2.20160000      -0.01230000       0.15000000
H       -3.00796709      -0.63260256      -1.55402349       0.15000000
H       -3.96236436       0.97950082       0.05179603       0.15000000
H        4.16520000      -1.63140000       0.00010000       0.15000000
H        4.28320000       1.12990000       0.01300000       0.15000000
