19
Properties=species:S:1:pos:R:3:initial_charges:R:1 pbc="F F F"
O        2.21680000       1.01590000       0.00530000      -0.28000000
O       -2.36919899       2.85703467       0.97354614      -0.57000000
N       -0.60973945       1.44088506       0.48875469      -0.54000000
C       -0.13890000       0.24000000      -0.00790000       0.15000000
C        1.31580000      -0.00150000      -0.00250000       0.09000000
C       -1.00833014      -0.66405414      -0.49172391      -0.15000000
C        1.95950000      -1.21710000      -0.00580000      -0.15000000
C       -1.95010898       1.79078265       0.53023140       0.62000000
C       -2.42272732      -0.38076768      -0.48430502      -0.15000000
C       -2.89930330       0.77542678      -0.00706222      -0.14000000
C        3.34500000      -0.92820000       0.00050000      -0.15000000
C        3.44920000       0.44360000       0.00700000      -0.01000000
H        0.05833677       2.11531802       0.84757860       0.37000000
H       -0.69436428      -1.61967271      -0.89802933       0.15000000
H        1.51370000      -2.20160000      -0.01230000       0.15000000
H       -3.09389539      -1.13512843      -0.87996829       0.15000000
H       -3.95872652       1.00033090       0.00337102       0.15000000
H        4.16520000      -1.63140000       0.00010000       0.15000000
H        4.28320000       1.12990000       0.01300000       0.15000000
