19
Properties=species:S:1:pos:R:3:initial_charges:R:1 pbc="F F F"
O        2.21680000       1.01590000       0.00530000      -0.28000000
O       -2.55024715       1.79228684       2.12801926      -0.57000000
N       -0.70059335       0.90649859       1.06483520      -0.54000000
C       -0.13890000       0.24000000      -0.00790000       0.15000000
C        1.31580000      -0.00150000      -0.00250000       0.09000000
C       -0.92197115      -0.15581843      -1.02644582      -0.15000000
C        1.95950000      -1.21710000      -0.00580000      -0.15000000
C       -2.05026068       1.20189918       1.17381083       0.62000000
C       -2.33940562       0.10977077      -0.99227638      -0.15000000
C       -2.90322913       0.75277429       0.03744227      -0.14000000
C        3.34500000      -0.92820000       0.00050000      -0.15000000
C        3.44920000       0.44360000       0.00700000      -0.01000000
H       -0.09684107       1.20244364       1.82499305       0.37000000
H       -0.53425253      -0.67751546      -1.89499171       0.15000000
H        1.51370000      -2.20160000      -0.01230000       0.15000000
H       -2.93962833      -0.22713489      -1.83031183       0.15000000
H       -3.96587941       0.95883740       0.07459925       0.15000000
H        4.16520000      -1.63140000       0.00010000       0.15000000
H        4.28320000       1.12990000       0.01300000       0.15000000
