19
Properties=species:S:1:pos:R:3:initial_charges:R:1 pbc="F F F"
O        2.21680000       1.01590000       0.00530000      -0.28000000
O       -3.11213522      -1.65349585      -0.60863823      -0.57000000
N       -0.98106821      -0.81370044      -0.30947701      -0.54000000
C       -0.13890000       0.24000000      -0.00790000       0.15000000
C        1.31580000      -0.00150000      -0.00250000       0.09000000
C       -0.66126157       1.44389011       0.28381085      -0.15000000
C        1.95950000      -1.21710000      -0.00580000      -0.15000000
C       -2.36335212      -0.71785549      -0.33852941       0.62000000
C       -2.09150391       1.63135379       0.27433057      -0.15000000
C       -2.92433121       0.62447019      -0.01593667      -0.14000000
C        3.34500000      -0.92820000       0.00050000      -0.15000000
C        3.44920000       0.44360000       0.00700000      -0.01000000
H       -0.57290065      -1.71768126      -0.52432151       0.37000000
H       -0.04833715       2.30372604       0.53255035       0.15000000
H        1.51370000      -2.20160000      -0.01230000       0.15000000
H       -2.47613442       2.61713722       0.51174699       0.15000000
H       -3.99981179       0.75220004      -0.02567683       0.15000000
H        4.16520000      -1.63140000       0.00010000       0.15000000
H        4.28320000       1.12990000       0.01300000       0.15000000
