19
Properties=species:S:1:pos:R:3:initial_charges:R:1 pbc="F F F"
O        2.21680000       1.01590000       0.00530000      -0.28000000
O       -2.93556127      -0.52969498       2.08317531      -0.57000000
N       -0.89336138      -0.25523696       1.03900448      -0.54000000
C       -0.13890000       0.24000000      -0.00790000       0.15000000
C        1.31580000      -0.00150000      -0.00250000       0.09000000
C       -0.74107153       0.93469146      -0.98876771      -0.15000000
C        1.95950000      -1.21710000      -0.00580000      -0.15000000
C       -2.26430544      -0.08786303       1.15405857       0.62000000
C       -2.16630879       1.15343143      -0.94781387      -0.15000000
C       -2.91511481       0.68160237       0.05634640      -0.14000000
C        3.34500000      -0.92820000       0.00050000      -0.15000000
C        3.44920000       0.44360000       0.00700000      -0.01000000
H       -0.42490401      -0.77481261       1.77421132       0.37000000
H       -0.19784927       1.35027878      -1.83082605       0.15000000
H        1.51370000      -2.20160000      -0.01230000       0.15000000
H       -2.61735929       1.71570149      -1.75804962       0.15000000
H       -3.98574750       0.83970509       0.09897805       0.15000000
H        4.16520000      -1.63140000       0.00010000       0.15000000
H        4.28320000       1.12990000       0.01300000       0.15000000
