19
Properties=species:S:1:pos:R:3:initial_charges:R:1 pbc="F F F"
O        2.21680000       1.01590000       0.00530000      -0.28000000
O       -3.10966752      -1.60872008       0.72906339      -0.57000000
N       -0.98014957      -0.79319940       0.35990262      -0.54000000
C       -0.13890000       0.24000000      -0.00790000       0.15000000
C        1.31580000      -0.00150000      -0.00250000       0.09000000
C       -0.66087353       1.43216881      -0.34492432      -0.15000000
C        1.95950000      -1.21710000      -0.00580000      -0.15000000
C       -2.36150137      -0.69009618       0.40435533       0.62000000
C       -2.09035026       1.62484267      -0.32764075      -0.15000000
C       -2.92236774       0.63720084       0.02446932      -0.14000000
C        3.34500000      -0.92820000       0.00050000      -0.15000000
C        3.44920000       0.44360000       0.00700000      -0.01000000
H       -0.57197187      -1.68660775       0.61515297       0.37000000
H       -0.04816453       2.27862772      -0.63640416       0.15000000
H        1.51370000      -2.20160000      -0.01230000       0.15000000
H       -2.47496502       2.59913111      -0.60854939       0.15000000
H       -3.99720146       0.76944073       0.04217104       0.15000000
H        4.16520000      -1.63140000       0.00010000       0.15000000
H        4.28320000       1.12990000       0.01300000       0.15000000
