19
Properties=species:S:1:pos:R:3:initial_charges:R:1 pbc="F F F"
O        2.21680000       1.01590000       0.00530000      -0.28000000
O       -2.93133524      -0.59729619      -2.07854751      -0.57000000
N       -0.89026397      -0.28314243      -1.04339736      -0.54000000
C       -0.13890000       0.24000000      -0.00790000       0.15000000
C        1.31580000      -0.00150000      -0.00250000       0.09000000
C       -0.74786878       0.93747400       0.96677701      -0.15000000
C        1.95950000      -1.21710000      -0.00580000      -0.15000000
C       -2.26345147      -0.13440132      -1.15728893       0.62000000
C       -2.17524763       1.14144680       0.92422848      -0.15000000
C       -2.92085814       0.64418202      -0.06998662      -0.14000000
C        3.34500000      -0.92820000       0.00050000      -0.15000000
C        3.44920000       0.44360000       0.00700000      -0.01000000
H       -0.41765765      -0.81042223      -1.77041836       0.37000000
H       -0.20878103       1.36573121       1.80513592       0.15000000
H        1.51370000      -2.20160000      -0.01230000       0.15000000
H       -2.63095643       1.71170711       1.72623147       0.15000000
H       -3.99325729       0.78973082      -0.11292699       0.15000000
H        4.16520000      -1.63140000       0.00010000       0.15000000
H        4.28320000       1.12990000       0.01300000       0.15000000
