19
Properties=species:S:1:pos:R:3:initial_charges:R:1 pbc="F F F"
O        2.21680000       1.01590000       0.00530000      -0.28000000
O       -2.36711539       2.82370453      -1.07835209      -0.57000000
N       -0.60821231       1.42712654      -0.53795392      -0.54000000
C       -0.13890000       0.24000000      -0.00790000       0.15000000
C        1.31580000      -0.00150000      -0.00250000       0.09000000
C       -1.01168146      -0.66268223       0.47243899      -0.15000000
C        1.95950000      -1.21710000      -0.00580000      -0.15000000
C       -1.94968793       1.76783739      -0.60935671       0.62000000
C       -2.42713453      -0.38667659       0.43868782      -0.15000000
C       -2.90213500       0.75697702      -0.06934952      -0.14000000
C        3.34500000      -0.92820000       0.00050000      -0.15000000
C        3.44920000       0.44360000       0.00700000      -0.01000000
H        0.06190952       2.09776103      -0.90006767       0.37000000
H       -0.69975408      -1.61205403       0.89464747       0.15000000
H        1.51370000      -2.20160000      -0.01230000       0.15000000
H       -3.10059933      -1.13709782       0.83792368       0.15000000
H       -3.96242916       0.97569156      -0.10110676       0.15000000
H        4.16520000      -1.63140000       0.00010000       0.15000000
H        4.28320000       1.12990000       0.01300000       0.15000000
