19
Properties=species:S:1:pos:R:3:initial_charges:R:1 pbc="F F F"
O        2.21680000       1.01590000       0.00530000      -0.28000000
O       -2.33219294       3.05219563      -0.26744280      -0.57000000
N       -0.59093161       1.54029838      -0.13188447      -0.54000000
C       -0.13890000       0.24000000      -0.00790000       0.15000000
C        1.31580000      -0.00150000      -0.00250000       0.09000000
C       -1.02714403      -0.76437713       0.08986182      -0.15000000
C        1.95950000      -1.21710000      -0.00580000      -0.15000000
C       -1.92999872       1.89649693      -0.15947000       0.62000000
C       -2.44145817      -0.48116314       0.07166826      -0.15000000
C       -2.89991914       0.77083285      -0.04661342      -0.14000000
C        3.34500000      -0.92820000       0.00050000      -0.15000000
C        3.44920000       0.44360000       0.00700000      -0.01000000
H        0.09093587       2.28807388      -0.20823104       0.37000000
H       -0.72883967      -1.80314731       0.18386459       0.15000000
H        1.51370000      -2.20160000      -0.01230000       0.15000000
H       -3.12785715      -1.31654065       0.15579309       0.15000000
H       -3.95913042       0.99642976      -0.06229036       0.15000000
H        4.16520000      -1.63140000       0.00010000       0.15000000
H        4.28320000       1.12990000       0.01300000       0.15000000
