19
Properties=species:S:1:pos:R:3:initial_charges:R:1 pbc="F F F"
O        2.21680000       1.01590000       0.00530000      -0.28000000
O       -2.68258714       1.00092099       2.38730262      -0.57000000
N       -0.76686634       0.51017140       1.19341024      -0.54000000
C       -0.13890000       0.24000000      -0.00790000       0.15000000
C        1.31580000      -0.00150000      -0.00250000       0.09000000
C       -0.85952172       0.21775514      -1.14258839      -0.15000000
C        1.95950000      -1.21710000      -0.00580000      -0.15000000
C       -2.12367793       0.76292230       1.31957845       0.62000000
C       -2.27948916       0.46826197      -1.10058295      -0.15000000
C       -2.90692375       0.73085065       0.05225875      -0.14000000
C        3.34500000      -0.92820000       0.00050000      -0.15000000
C        3.44920000       0.44360000       0.00700000      -0.01000000
H       -0.20975833       0.52711644       2.04151624       0.37000000
H       -0.41823352       0.01646322      -2.11295522       0.15000000
H        1.51370000      -2.20160000      -0.01230000       0.15000000
H       -2.82827773       0.43900905      -2.03549017       0.15000000
H       -3.97219332       0.92130450       0.09693943       0.15000000
H        4.16520000      -1.63140000       0.00010000       0.15000000
H        4.28320000       1.12990000       0.01300000       0.15000000
