19
Properties=species:S:1:pos:R:3:initial_charges:R:1 pbc="F F F"
O        2.21680000       1.01590000       0.00530000      -0.28000000
O       -2.33415929       3.05170049       0.24012746      -0.57000000
N       -0.59203530       1.53932879       0.12207576      -0.54000000
C       -0.13890000       0.24000000      -0.00790000       0.15000000
C        1.31580000      -0.00150000      -0.00250000       0.09000000
C       -1.02563363      -0.76061066      -0.14857697      -0.15000000
C        1.95950000      -1.21710000      -0.00580000      -0.15000000
C       -1.93090882       1.89731854       0.12244498       0.62000000
C       -2.43971587      -0.47577144      -0.15655751      -0.15000000
C       -2.89926319       0.77513024      -0.03112934      -0.14000000
C        3.34500000      -0.92820000       0.00050000      -0.15000000
C        3.44920000       0.44360000       0.00700000      -0.01000000
H        0.08881659       2.28497364       0.22403018       0.37000000
H       -0.72623936      -1.79739757      -0.25948897       0.15000000
H        1.51370000      -2.20160000      -0.01230000       0.15000000
H       -3.12498487      -1.30873824      -0.26902459       0.15000000
H       -3.95828902       1.00207817      -0.03634570       0.15000000
H        4.16520000      -1.63140000       0.00010000       0.15000000
H        4.28320000       1.12990000       0.01300000       0.15000000
