19
Properties=species:S:1:pos:R:3:initial_charges:R:1 pbc="F F F"
O        2.21680000       1.01590000       0.00530000      -0.28000000
O       -2.33540527       3.02909258      -0.43529653      -0.57000000
N       -0.59249914       1.52897753      -0.21590324      -0.54000000
C       -0.13890000       0.24000000      -0.00790000       0.15000000
C        1.31580000      -0.00150000      -0.00250000       0.09000000
C       -1.02582956      -0.75469241       0.16888009      -0.15000000
C        1.95950000      -1.21710000      -0.00580000      -0.15000000
C       -1.93184330       1.88330249      -0.25264777       0.62000000
C       -2.44029837      -0.47248388       0.14738610      -0.15000000
C       -2.90025458       0.76870236      -0.05153088      -0.14000000
C        3.34500000      -0.92820000       0.00050000      -0.15000000
C        3.44920000       0.44360000       0.00700000      -0.01000000
H        0.08834764       2.26928420      -0.35130620       0.37000000
H       -0.72632651      -1.78472508       0.33073228       0.15000000
H        1.51370000      -2.20160000      -0.01230000       0.15000000
H       -3.12557532      -1.29964671       0.29662850       0.15000000
H       -3.95960701       0.99337311      -0.07060303       0.15000000
H        4.16520000      -1.63140000       0.00010000       0.15000000
H        4.28320000       1.12990000       0.01300000       0.15000000
