19
Properties=species:S:1:pos:R:3:initial_charges:R:1 pbc="F F F"
O        2.21680000       1.01590000       0.00530000      -0.28000000
O       -2.49847025       2.01123690      -2.02816946      -0.57000000
N       -0.67370682       1.02196065      -1.01437892      -0.54000000
C       -0.13890000       0.24000000      -0.00790000       0.15000000
C        1.31580000      -0.00150000      -0.00250000       0.09000000
C       -0.95109287      -0.28761359       0.92444912      -0.15000000
C        1.95950000      -1.21710000      -0.00580000      -0.15000000
C       -2.02299186       1.31452794      -1.13509908       0.62000000
C       -2.36970600      -0.03101000       0.87427894      -0.15000000
C       -2.90750567       0.72413713      -0.09122367      -0.14000000
C        3.34500000      -0.92820000       0.00050000      -0.15000000
C        3.44920000       0.44360000       0.00700000      -0.01000000
H       -0.04910910       1.41084337      -1.71336974       0.37000000
H       -0.58669916      -0.91230919       1.73305170       0.15000000
H        1.51370000      -2.20160000      -0.01230000       0.15000000
H       -2.99299607      -0.47089094       1.64505153       0.15000000
H       -3.97093733       0.92356501      -0.14031433       0.15000000
H        4.16520000      -1.63140000       0.00010000       0.15000000
H        4.28320000       1.12990000       0.01300000       0.15000000
