19
Properties=species:S:1:pos:R:3:initial_charges:R:1 pbc="F F F"
O        2.21680000       1.01590000       0.00530000      -0.28000000
O       -3.00165380      -0.93449574       1.78417731      -0.57000000
N       -0.92635787      -0.45735305       0.88881035      -0.54000000
C       -0.13890000       0.24000000      -0.00790000       0.15000000
C        1.31580000      -0.00150000      -0.00250000       0.09000000
C       -0.71037888       1.12277730      -0.84541082      -0.15000000
C        1.95950000      -1.21710000      -0.00580000      -0.15000000
C       -2.30112485      -0.31334175       0.98888824       0.62000000
C       -2.13711042       1.33241179      -0.80913223      -0.15000000
C       -2.91756464       0.66672070       0.05076169      -0.14000000
C        3.34500000      -0.92820000       0.00050000      -0.15000000
C        3.44920000       0.44360000       0.00700000      -0.01000000
H       -0.48092097      -1.11797930       1.51737950       0.37000000
H       -0.14065324       1.70074223      -1.56529604       0.15000000
H        1.51370000      -2.20160000      -0.01230000       0.15000000
H       -2.56278509       2.05016595      -1.50174048       0.15000000
H       -3.98969630       0.81568139       0.08834758       0.15000000
H        4.16520000      -1.63140000       0.00010000       0.15000000
H        4.28320000       1.12990000       0.01300000       0.15000000
