19
Properties=species:S:1:pos:R:3:initial_charges:R:1 pbc="F F F"
O        2.21680000       1.01590000       0.00530000      -0.28000000
O       -2.43605791       2.39449316      -1.70128872      -0.57000000
N       -0.64255817       1.21325734      -0.85026525      -0.54000000
C       -0.13890000       0.24000000      -0.00790000       0.15000000
C        1.31580000      -0.00150000      -0.00250000       0.09000000
C       -0.98002499      -0.46538412       0.76814783      -0.15000000
C        1.95950000      -1.21710000      -0.00580000      -0.15000000
C       -1.98820666       1.52810075      -0.95439433       0.62000000
C       -2.39720321      -0.20001856       0.72328517      -0.15000000
C       -2.90512941       0.73859886      -0.08460051      -0.14000000
C        3.34500000      -0.92820000       0.00050000      -0.15000000
C        3.44920000       0.44360000       0.00700000      -0.01000000
H        0.00374967       1.73551477      -1.43290888       0.37000000
H       -0.64063290      -1.24366131       1.44339825       0.15000000
H        1.51370000      -2.20160000      -0.01230000       0.15000000
H       -3.04442380      -0.78691690       1.36572739       0.15000000
H       -3.96712573       0.94679967      -0.12801147       0.15000000
H        4.16520000      -1.63140000       0.00010000       0.15000000
H        4.28320000       1.12990000       0.01300000       0.15000000
