19
Properties=species:S:1:pos:R:3:initial_charges:R:1 pbc="F F F"
O        2.21680000       1.01590000       0.00530000      -0.28000000
O       -2.33091191       3.06369250      -0.09837144      -0.57000000
N       -0.59033063       1.54581037      -0.04727342      -0.54000000
C       -0.13890000       0.24000000      -0.00790000       0.15000000
C        1.31580000      -0.00150000      -0.00250000       0.09000000
C       -1.02755011      -0.76860101       0.01035457      -0.15000000
C        1.95950000      -1.21710000      -0.00580000      -0.15000000
C       -1.92922649       1.90324776      -0.06559018       0.62000000
C       -2.44174792      -0.48461108      -0.00447565      -0.15000000
C       -2.89964124       0.77261985      -0.04155750      -0.14000000
C        3.34500000      -0.92820000       0.00050000      -0.15000000
C        3.44920000       0.44360000       0.00700000      -0.01000000
H        0.09187849       2.29697285      -0.06418184       0.37000000
H       -0.72966416      -1.81141872       0.03605824       0.15000000
H        1.51370000      -2.20160000      -0.01230000       0.15000000
H       -3.12852018      -1.32370255       0.01411215       0.15000000
H       -3.95875074       0.99890705      -0.05378216       0.15000000
H        4.16520000      -1.63140000       0.00010000       0.15000000
H        4.28320000       1.12990000       0.01300000       0.15000000
