19
Properties=species:S:1:pos:R:3:initial_charges:R:1 pbc="F F F"
O        2.21680000       1.01590000       0.00530000      -0.28000000
O       -2.67769366       0.92264302      -2.43171226      -0.57000000
N       -0.76327974       0.47785861      -1.21788092      -0.54000000
C       -0.13890000       0.24000000      -0.00790000       0.15000000
C        1.31580000      -0.00150000      -0.00250000       0.09000000
C       -0.86739251       0.22097715       1.12181016      -0.15000000
C        1.95950000      -1.21710000      -0.00580000      -0.15000000
C       -2.12268907       0.70903387      -1.35681747       0.62000000
C       -2.28983976       0.45438451       1.06712507      -0.15000000
C       -2.91357417       0.68752023      -0.09402699      -0.14000000
C        3.34500000      -0.92820000       0.00050000      -0.15000000
C        3.44920000       0.44360000       0.00700000      -0.01000000
H       -0.20136751       0.48588272      -2.06294335       0.37000000
H       -0.43089181       0.03435616       2.09726146       0.15000000
H        1.51370000      -2.20160000      -0.01230000       0.15000000
H       -2.84402237       0.43438380       1.99908953       0.15000000
H       -3.98088919       0.86343741      -0.14843336       0.15000000
H        4.16520000      -1.63140000       0.00010000       0.15000000
H        4.28320000       1.12990000       0.01300000       0.15000000
