19
Properties=species:S:1:pos:R:3:initial_charges:R:1 pbc="F F F"
O        2.21680000       1.01590000       0.00530000      -0.28000000
O       -2.35819386       2.91981412       0.81652203      -0.57000000
N       -0.60419632       1.47251996       0.41027998      -0.54000000
C       -0.13890000       0.24000000      -0.00790000       0.15000000
C        1.31580000      -0.00150000      -0.00250000       0.09000000
C       -1.01367996      -0.69463996      -0.41840750      -0.15000000
C        1.95950000      -1.21710000      -0.00580000      -0.15000000
C       -1.94405236       1.82531209       0.44287794       0.62000000
C       -2.42793899      -0.41059660      -0.41435546      -0.15000000
C       -2.89918723       0.77600662      -0.01239919      -0.14000000
C        3.34500000      -0.92820000       0.00050000      -0.15000000
C        3.44920000       0.44360000       0.00700000      -0.01000000
H        0.06784548       2.16961216       0.71419201       0.37000000
H       -0.70424790      -1.67615586      -0.76154570       0.15000000
H        1.51370000      -2.20160000      -0.01230000       0.15000000
H       -3.10348258      -1.18996014      -0.74948154       0.15000000
H       -3.95845297       1.00178309      -0.00537466       0.15000000
H        4.16520000      -1.63140000       0.00010000       0.15000000
H        4.28320000       1.12990000       0.01300000       0.15000000
