19
Properties=species:S:1:pos:R:3:initial_charges:R:1 pbc="F F F"
O        2.21680000       1.01590000       0.00530000      -0.28000000
O       -3.11948827      -1.67336760       0.48348434      -0.57000000
N       -0.98500504      -0.82519642       0.23693355      -0.54000000
C       -0.13890000       0.24000000      -0.00790000       0.15000000
C        1.31580000      -0.00150000      -0.00250000       0.09000000
C       -0.65654549       1.46082917      -0.22909565      -0.15000000
C        1.95950000      -1.21710000      -0.00580000      -0.15000000
C       -2.36704458      -0.72653302       0.26809972       0.62000000
C       -2.08635189       1.65141154      -0.21653867      -0.15000000
C       -2.92301562       0.63314339       0.01754410      -0.14000000
C        3.34500000      -0.92820000       0.00050000      -0.15000000
C        3.44920000       0.44360000       0.00700000      -0.01000000
H       -0.58011917      -1.74036820       0.40565904       0.37000000
H       -0.04001571       2.33252504      -0.42119677       0.15000000
H        1.51370000      -2.20160000      -0.01230000       0.15000000
H       -2.46734208       2.64966628      -0.40203825       0.15000000
H       -3.99816168       0.76339273       0.03036347       0.15000000
H        4.16520000      -1.63140000       0.00010000       0.15000000
H        4.28320000       1.12990000       0.01300000       0.15000000
