19
Properties=species:S:1:pos:R:3:initial_charges:R:1 pbc="F F F"
O        2.21680000       1.01590000       0.00530000      -0.28000000
O       -3.02116151      -1.05463904       1.66626217      -0.57000000
N       -0.93609002      -0.51729883       0.82963636      -0.54000000
C       -0.13890000       0.24000000      -0.00790000       0.15000000
C        1.31580000      -0.00150000      -0.00250000       0.09000000
C       -0.70135401       1.17839734      -0.78915807      -0.15000000
C        1.95950000      -1.21710000      -0.00580000      -0.15000000
C       -2.31200302      -0.38032599       0.92366272       0.62000000
C       -2.12854247       1.38523536      -0.75485400      -0.15000000
C       -2.91832959       0.66205602       0.04821444      -0.14000000
C        3.34500000      -0.92820000       0.00050000      -0.15000000
C        3.44920000       0.44360000       0.00700000      -0.01000000
H       -0.49742880      -1.21967590       1.41630751       0.37000000
H       -0.12382301       1.80445281      -1.46100476       0.15000000
H        1.51370000      -2.20160000      -0.01230000       0.15000000
H       -2.54674881       2.14900907      -1.40125119       0.15000000
H       -3.99091689       0.80822514       0.08370160       0.15000000
H        4.16520000      -1.63140000       0.00010000       0.15000000
H        4.28320000       1.12990000       0.01300000       0.15000000
