19
Properties=species:S:1:pos:R:3:initial_charges:R:1 pbc="F F F"
O        2.21680000       1.01590000       0.00530000      -0.28000000
O       -3.12104289      -1.70157580      -0.35925139      -0.57000000
N       -0.98558377      -0.83811182      -0.18476746      -0.54000000
C       -0.13890000       0.24000000      -0.00790000       0.15000000
C        1.31580000      -0.00150000      -0.00250000       0.09000000
C       -0.65678995       1.46821345       0.16699986      -0.15000000
C        1.95950000      -1.21710000      -0.00580000      -0.15000000
C       -2.36821054      -0.74402104      -0.19990862       0.62000000
C       -2.08707867       1.65551347       0.16269593      -0.15000000
C       -2.92425259       0.62512324      -0.00791118      -0.14000000
C        3.34500000      -0.92820000       0.00050000      -0.15000000
C        3.44920000       0.44360000       0.00700000      -0.01000000
H       -0.58070429      -1.75994414      -0.31219601       0.37000000
H       -0.04012446       2.34833668       0.31523034       0.15000000
H        1.51370000      -2.20160000      -0.01230000       0.15000000
H       -2.46807879       2.66100990       0.30373483       0.15000000
H       -3.99980616       0.75253131      -0.01237987       0.15000000
H        4.16520000      -1.63140000       0.00010000       0.15000000
H        4.28320000       1.12990000       0.01300000       0.15000000
