19
Properties=species:S:1:pos:R:3:initial_charges:R:1 pbc="F F F"
O        2.21680000       1.01590000       0.00530000      -0.28000000
O       -3.11668617      -1.65464180       0.56608831      -0.57000000
N       -0.98362261      -0.81594447       0.27829152      -0.54000000
C       -0.13890000       0.24000000      -0.00790000       0.15000000
C        1.31580000      -0.00150000      -0.00250000       0.09000000
C       -0.65776590       1.45260727      -0.26803465      -0.15000000
C        1.95950000      -1.21710000      -0.00580000      -0.15000000
C       -2.36545847      -0.71595394       0.31393791       0.62000000
C       -2.08747152       1.64383241      -0.25387782      -0.15000000
C       -2.92281308       0.63441612       0.01989986      -0.14000000
C        3.34500000      -0.92820000       0.00050000      -0.15000000
C        3.44920000       0.44360000       0.00700000      -0.01000000
H       -0.57780553      -1.72485648       0.47610890       0.37000000
H       -0.04231896       2.31703330      -0.49355230       0.15000000
H        1.51370000      -2.20160000      -0.01230000       0.15000000
H       -2.46948679       2.63519521      -0.47145602       0.15000000
H       -3.99786444       0.76527280       0.03436979       0.15000000
H        4.16520000      -1.63140000       0.00010000       0.15000000
H        4.28320000       1.12990000       0.01300000       0.15000000
