19
Properties=species:S:1:pos:R:3:initial_charges:R:1 pbc="F F F"
O        2.21680000       1.01590000       0.00530000      -0.28000000
O       -2.34899336       2.97163233       0.65543457      -0.57000000
N       -0.59955512       1.49867620       0.32975618      -0.54000000
C       -0.13890000       0.24000000      -0.00790000       0.15000000
C        1.31580000      -0.00150000      -0.00250000       0.09000000
C       -1.01818699      -0.72010469      -0.34310383      -0.15000000
C        1.95950000      -1.21710000      -0.00580000      -0.15000000
C       -1.93899960       1.85374471       0.35329196       0.62000000
C       -2.43234647      -0.43553802      -0.34246411      -0.15000000
C       -2.89913226       0.77621777      -0.01776438      -0.14000000
C        3.34500000      -0.92820000       0.00050000      -0.15000000
C        3.44920000       0.44360000       0.00700000      -0.01000000
H        0.07582108       2.21459273       0.57728551       0.37000000
H       -0.71256266      -1.72310689      -0.62139479       0.15000000
H        1.51370000      -2.20160000      -0.01230000       0.15000000
H       -3.11156973      -1.23567649      -0.61542992       0.15000000
H       -3.95827963       1.00262983      -0.01420209       0.15000000
H        4.16520000      -1.63140000       0.00010000       0.15000000
H        4.28320000       1.12990000       0.01300000       0.15000000
