22
Properties=species:S:1:pos:R:3:initial_charges:R:1 pbc="F F F"
C        0.72340000      -0.00020000      -0.00010000       0.00000000
C       -0.72340000       0.00030000      -0.00010000       0.00000000
C        1.42060000       0.73480000       0.95860000      -0.15000000
C       -1.42032293      -0.15687295      -1.19818061      -0.15000000
C        1.42110000      -0.73500000      -0.95880000      -0.15000000
C       -1.42127664       0.15830908       1.19716661      -0.15000000
C        2.81550000       0.73510000       0.95880000      -0.15000000
C       -2.81512261      -0.15613675      -1.19882136      -0.15000000
C        2.81590000      -0.73480000      -0.95860000      -0.15000000
C       -2.81617632       0.15904533       1.19652583      -0.15000000
C        3.51310000       0.00010000       0.00010000      -0.15000000
C       -3.51319930       0.00182247      -0.00146818      -0.15000000
H        0.89240000       1.31320000       1.71300000       0.15000000
H       -0.89180513      -0.28104108      -2.14040494       0.15000000
H        0.89310000      -1.31340000      -1.71330000       0.15000000
H       -0.89359468       0.28200312       2.13998031       0.15000000
H        3.35850000       1.30740000       1.70510000       0.15000000
H       -3.35790686      -0.27844979      -2.13161189       0.15000000
H        3.35930000      -1.30690000      -1.70510000       0.15000000
H       -3.35979175       0.28198470       2.12868131       0.15000000
H        4.59920000       0.00030000       0.00020000       0.15000000
H       -4.59919903       0.00239862      -0.00201649       0.15000000
