22
Properties=species:S:1:pos:R:3:initial_charges:R:1 pbc="F F F"
C        0.72340000      -0.00020000      -0.00010000       0.00000000
C       -0.72340000       0.00030000      -0.00010000       0.00000000
C        1.42060000       0.73480000       0.95860000      -0.15000000
C       -1.42025021       0.05356302      -1.20731369      -0.15000000
C        1.42110000      -0.73500000      -0.95880000      -0.15000000
C       -1.42134932      -0.05199092       1.20637355      -0.15000000
C        2.81550000       0.73510000       0.95880000      -0.15000000
C       -2.81504985       0.05440663      -1.20790057      -0.15000000
C        2.81590000      -0.73480000      -0.95860000      -0.15000000
C       -2.81624896      -0.05114727       1.20578664      -0.15000000
C        3.51310000       0.00010000       0.00010000      -0.15000000
C       -3.51319922       0.00205157      -0.00135044      -0.15000000
H        0.89240000       1.31320000       1.71300000       0.15000000
H       -0.89167521       0.09489404      -2.15675337       0.15000000
H        0.89310000      -1.31340000      -1.71330000       0.15000000
H       -0.89372458      -0.09389671       2.15637469       0.15000000
H        3.35850000       1.30740000       1.70510000       0.15000000
H       -3.35777748       0.09593201      -2.14779193       0.15000000
H        3.35930000      -1.30690000      -1.70510000       0.15000000
H       -3.35992097      -0.09193985       2.14509616       0.15000000
H        4.59920000       0.00030000       0.00020000       0.15000000
H       -4.59919892       0.00271988      -0.00185555       0.15000000
