22
Properties=species:S:1:pos:R:3:initial_charges:R:1 pbc="F F F"
C        0.72340000      -0.00020000      -0.00010000       0.00000000
C       -0.72340000       0.00030000      -0.00010000       0.00000000
C        1.42060000       0.73480000       0.95860000      -0.15000000
C       -1.42028685      -0.05248136       1.20711369      -0.15000000
C        1.42110000      -0.73500000      -0.95880000      -0.15000000
C       -1.42131301       0.05307332      -1.20657355      -0.15000000
C        2.81550000       0.73510000       0.95880000      -0.15000000
C       -2.81508674      -0.05236091       1.20770057      -0.15000000
C        2.81590000      -0.73480000      -0.95860000      -0.15000000
C       -2.81621290       0.05319379      -1.20598664      -0.15000000
C        3.51310000       0.00010000       0.00010000      -0.15000000
C       -3.51319977       0.00047669       0.00115044      -0.15000000
H        0.89240000       1.31320000       1.71300000       0.15000000
H       -0.89174055      -0.09417771       2.15655337       0.15000000
H        0.89310000      -1.31340000      -1.71330000       0.15000000
H       -0.89365944       0.09461442      -2.15657469       0.15000000
H        3.35850000       1.30740000       1.70510000       0.15000000
H       -3.35784295      -0.09351116       2.14759193       0.15000000
H        3.35930000      -1.30690000      -1.70510000       0.15000000
H       -3.35985659       0.09436214      -2.14529616       0.15000000
H        4.59920000       0.00030000       0.00020000       0.15000000
H       -4.59919967       0.00055899       0.00165555       0.15000000
