22
Properties=species:S:1:pos:R:3:initial_charges:R:1 pbc="F F F"
C        0.72340000      -0.00020000      -0.00010000       0.00000000
C       -0.72340000       0.00030000      -0.00010000       0.00000000
C        1.42060000       0.73480000       0.95860000      -0.15000000
C       -1.41993716       0.95940212      -0.73546464      -0.15000000
C        1.42110000      -0.73500000      -0.95880000      -0.15000000
C       -1.42166223      -0.95743810       0.73516431      -0.15000000
C        2.81550000       0.73510000       0.95880000      -0.15000000
C       -2.81473669       0.96056614      -0.73556490      -0.15000000
C        2.81590000      -0.73480000      -0.95860000      -0.15000000
C       -2.81656176      -0.95627401       0.73506405      -0.15000000
C        3.51310000       0.00010000       0.00010000      -0.15000000
C       -3.51319899       0.00272818      -0.00030056      -0.15000000
H        0.89240000       1.31320000       1.71300000       0.15000000
H       -0.89111593       1.71321689      -1.31395138       0.15000000
H        0.89310000      -1.31340000      -1.71330000       0.15000000
H       -0.89428385      -1.71218282       1.31385126       0.15000000
H        3.35850000       1.30740000       1.70510000       0.15000000
H       -3.35722060       1.70732365      -1.30804881       0.15000000
H        3.35930000      -1.30690000      -1.70510000       0.15000000
H       -3.36047738      -1.70198066       1.30744770       0.15000000
H        4.59920000       0.00030000       0.00020000       0.15000000
H       -4.59919859       0.00367876      -0.00040078       0.15000000
