22
Properties=species:S:1:pos:R:3:initial_charges:R:1 pbc="F F F"
C        0.72340000      -0.00020000      -0.00010000       0.00000000
C       -0.72340000       0.00030000      -0.00010000       0.00000000
C        1.42060000       0.73480000       0.95860000      -0.15000000
C       -1.42068258      -1.19753971       0.15731379      -0.15000000
C        1.42110000      -0.73500000      -0.95880000      -0.15000000
C       -1.42091740       1.19780774      -0.15786789      -0.15000000
C        2.81550000       0.73510000       0.95880000      -0.15000000
C       -2.81548256      -1.19769843       0.15705962      -0.15000000
C        2.81590000      -0.73480000      -0.95860000      -0.15000000
C       -2.81581739       1.19764902      -0.15812208      -0.15000000
C        3.51310000       0.00010000       0.00010000      -0.15000000
C       -3.51319997      -0.00010406      -0.00065834      -0.15000000
H        0.89240000       1.31320000       1.71300000       0.15000000
H       -0.89244755      -2.13994665       0.28129926       0.15000000
H        0.89310000      -1.31340000      -1.71330000       0.15000000
H       -0.89295242       2.14043903      -0.28174428       0.15000000
H        3.35850000       1.30740000       1.70510000       0.15000000
H       -3.35854684      -2.13030134       0.27956023       0.15000000
H        3.35930000      -1.30690000      -1.70510000       0.15000000
H       -3.35915309       2.12999233      -0.28087357       0.15000000
H        4.59920000       0.00030000       0.00020000       0.15000000
H       -4.59919996      -0.00027706      -0.00085918       0.15000000
