22
Properties=species:S:1:pos:R:3:initial_charges:R:1 pbc="F F F"
C        0.72340000      -0.00020000      -0.00010000       0.00000000
C       -0.72340000       0.00030000      -0.00010000       0.00000000
C        1.42060000       0.73480000       0.95860000      -0.15000000
C       -1.42021413       0.15795461       1.19798061      -0.15000000
C        1.42110000      -0.73500000      -0.95880000      -0.15000000
C       -1.42138569      -0.15722668      -1.19736661      -0.15000000
C        2.81550000       0.73510000       0.95880000      -0.15000000
C       -2.81501398       0.15818247       1.19862136      -0.15000000
C        2.81590000      -0.73480000      -0.95860000      -0.15000000
C       -2.81628554      -0.15699880      -1.19672583      -0.15000000
C        3.51310000       0.00010000       0.00010000      -0.15000000
C       -3.51319969       0.00070579       0.00126818      -0.15000000
H        0.89240000       1.31320000       1.71300000       0.15000000
H       -0.89161063       0.28175741       2.14020494       0.15000000
H        0.89310000      -1.31340000      -1.71330000       0.15000000
H       -0.89378934      -0.28128542      -2.14018031       0.15000000
H        3.35850000       1.30740000       1.70510000       0.15000000
H       -3.35771356       0.28087064       2.13141189       0.15000000
H        3.35930000      -1.30690000      -1.70510000       0.15000000
H       -3.35998581      -0.27956241      -2.12888131       0.15000000
H        4.59920000       0.00030000       0.00020000       0.15000000
H       -4.59919956       0.00088026       0.00181649       0.15000000
