22
Properties=species:S:1:pos:R:3:initial_charges:R:1 pbc="F F F"
C        0.72340000      -0.00020000      -0.00010000       0.00000000
C       -0.72340000       0.00030000      -0.00010000       0.00000000
C        1.42060000       0.73480000       0.95860000      -0.15000000
C       -1.41986085       1.18020695       0.26174713      -0.15000000
C        1.42110000      -0.73500000      -0.95880000      -0.15000000
C       -1.42173862      -1.17848113      -0.26133598      -0.15000000
C        2.81550000       0.73510000       0.95880000      -0.15000000
C       -2.81466044       1.18120416       0.26220512      -0.15000000
C        2.81590000      -0.73480000      -0.95860000      -0.15000000
C       -2.81663821      -1.17748386      -0.26087796      -0.15000000
C        3.51310000       0.00010000       0.00010000      -0.15000000
C       -3.51319912       0.00235884       0.00089261      -0.15000000
H        0.89240000       1.31320000       1.71300000       0.15000000
H       -0.89097956       2.10783102       0.46749860       0.15000000
H        0.89310000      -1.31340000      -1.71330000       0.15000000
H       -0.89442029      -2.10698671      -0.46739152       0.15000000
H        3.35850000       1.30740000       1.70510000       0.15000000
H       -3.35708495       2.09982573       0.46612534       0.15000000
H        3.35930000      -1.30690000      -1.70510000       0.15000000
H       -3.36061328      -2.09521904      -0.46434524       0.15000000
H        4.59920000       0.00030000       0.00020000       0.15000000
H       -4.59919876       0.00318070       0.00126888       0.15000000
