8
Properties=species:S:1:pos:R:3 pbc="F F F"
C        0.00000000       0.00000000       0.76220900
C        0.00000000       0.00000000      -0.76220900
H        0.00000000       1.01895700       1.15722900
H       -0.88244300      -0.50947900       1.15722900
H        0.88244300      -0.50947900       1.15722900
H       -0.92348877       0.43062960      -1.15722900
H        0.83468116       0.58445004      -1.15722900
H        0.08880851      -1.01508007      -1.15722900
