8
Properties=species:S:1:pos:R:3 pbc="F F F"
C        0.00000000       0.00000000       0.76220900
C        0.00000000       0.00000000      -0.76220900
H        0.00000000       1.01895700       1.15722900
H       -0.88244300      -0.50947900       1.15722900
H        0.88244300      -0.50947900       1.15722900
H       -0.43063007       0.92348856      -1.15722900
H        1.01508011      -0.08880800      -1.15722900
H       -0.58444962      -0.83468146      -1.15722900
