8
Properties=species:S:1:pos:R:3 pbc="F F F"
C        0.00000000       0.00000000       0.76220900
C        0.00000000       0.00000000      -0.76220900
H        0.00000000       1.01895700       1.15722900
H       -0.88244300      -0.50947900       1.15722900
H        0.88244300      -0.50947900       1.15722900
H       -0.72051122      -0.72051159      -1.15722900
H       -0.26372562       0.98423742      -1.15722900
H        0.98423755      -0.26372513      -1.15722900
