8
Properties=species:S:1:pos:R:3 pbc="F F F"
C        0.00000000       0.00000000       0.76220900
C        0.00000000       0.00000000      -0.76220900
H        0.00000000       1.01895700       1.15722900
H       -0.88244300      -0.50947900       1.15722900
H        0.88244300      -0.50947900       1.15722900
H       -1.00347680       0.17693977      -1.15722900
H        0.65497329       0.78056677      -1.15722900
H        0.34850449      -0.95750672      -1.15722900
