8
Properties=species:S:1:pos:R:3 pbc="F F F"
C        0.00000000       0.00000000       0.76220900
C        0.00000000       0.00000000      -0.76220900
H        0.00000000       1.01895700       1.15722900
H       -0.88244300      -0.50947900       1.15722900
H        0.88244300      -0.50947900       1.15722900
H        0.83468086      -0.58444951      -1.15722900
H       -0.92348917      -0.43063007      -1.15722900
H        0.08880749       1.01508016      -1.15722900
