8
Properties=species:S:1:pos:R:3 pbc="F F F"
C        0.00000000       0.00000000       0.76220900
C        0.00000000       0.00000000      -0.76220900
H        0.00000000       1.01895700       1.15722900
H       -0.88244300      -0.50947900       1.15722900
H        0.88244300      -0.50947900       1.15722900
H       -0.41444692      -0.93086364      -1.15722900
H       -0.59892822       0.82435398      -1.15722900
H        1.01337555       0.10651058      -1.15722900
