8
Properties=species:S:1:pos:R:3 pbc="F F F"
C        0.00000000       0.00000000       0.76220900
C        0.00000000       0.00000000      -0.76220900
H        0.00000000       1.01895700       1.15722900
H       -0.88244300      -0.50947900       1.15722900
H        0.88244300      -0.50947900       1.15722900
H       -0.56979331      -0.84475378      -1.15722900
H       -0.44668159       0.91583298      -1.15722900
H        1.01647546      -0.07107837      -1.15722900
