8
Properties=species:S:1:pos:R:3 pbc="F F F"
C        0.00000000       0.00000000       0.76220900
C        0.00000000       0.00000000      -0.76220900
H        0.00000000       1.01895700       1.15722900
H       -0.88244300      -0.50947900       1.15722900
H        0.88244300      -0.50947900       1.15722900
H        0.95750646      -0.34850358      -1.15722900
H       -0.78056677      -0.65497329      -1.15722900
H       -0.17694063       1.00347721      -1.15722900
