8
Properties=species:S:1:pos:R:3 pbc="F F F"
C        0.00000000       0.00000000       0.76220900
C        0.00000000       0.00000000      -0.76220900
H        0.00000000       1.01895700       1.15722900
H       -0.88244300      -0.50947900       1.15722900
H        0.88244300      -0.50947900       1.15722900
H        0.84475349       0.56979374      -1.15722900
H        0.07107889      -1.01647543      -1.15722900
H       -0.91583321       0.44668113      -1.15722900
