8
Properties=species:S:1:pos:R:3 pbc="F F F"
C        0.00000000       0.00000000       0.76220900
C        0.00000000       0.00000000      -0.76220900
H        0.00000000       1.01895700       1.15722900
H       -0.88244300      -0.50947900       1.15722900
H        0.88244300      -0.50947900       1.15722900
H       -0.97948426      -0.28086286      -1.15722900
H        0.24650814       0.98869016      -1.15722900
H        0.73297708      -0.70782703      -1.15722900
