8
Properties=species:S:1:pos:R:3 pbc="F F F"
C        0.00000000       0.00000000       0.76220900
C        0.00000000       0.00000000      -0.76220900
H        0.00000000       1.01895700       1.15722900
H       -0.88244300      -0.50947900       1.15722900
H        0.88244300      -0.50947900       1.15722900
H       -0.38170825       0.94476038      -1.15722900
H        1.00904113      -0.14181148      -1.15722900
H       -0.62733251      -0.80294983      -1.15722900
