8
Properties=species:S:1:pos:R:3 pbc="F F F"
C        0.00000000       0.00000000       0.76220900
C        0.00000000       0.00000000      -0.76220900
H        0.00000000       1.01895700       1.15722900
H       -0.88244300      -0.50947900       1.15722900
H        0.88244300      -0.50947900       1.15722900
H       -0.82435368       0.59892769      -1.15722900
H        0.93086405       0.41444738      -1.15722900
H       -0.10650956      -1.01337565      -1.15722900
