8
Properties=species:S:1:pos:R:3 pbc="F F F"
C        0.00000000       0.00000000       0.76220900
C        0.00000000       0.00000000      -0.76220900
H        0.00000000       1.01895700       1.15722900
H       -0.88244300      -0.50947900       1.15722900
H        0.88244300      -0.50947900       1.15722900
H        0.47837156      -0.89968551      -1.15722900
H       -1.01833683       0.03556111      -1.15722900
H        0.53996480       0.86412529      -1.15722900
