8
Properties=species:S:1:pos:R:3 pbc="F F F"
C        0.00000000       0.00000000       0.76220900
C        0.00000000       0.00000000      -0.76220900
H        0.00000000       1.01895700       1.15722900
H       -0.88244300      -0.50947900       1.15722900
H        0.88244300      -0.50947900       1.15722900
H       -0.95750629      -0.34850406      -1.15722900
H        0.17694012       1.00347730      -1.15722900
H        0.78056710      -0.65497290      -1.15722900
