8
Properties=species:S:1:pos:R:3 pbc="F F F"
C        0.00000000       0.00000000       0.76220900
C        0.00000000       0.00000000      -0.76220900
H        0.00000000       1.01895700       1.15722900
H       -0.88244300      -0.50947900       1.15722900
H        0.88244300      -0.50947900       1.15722900
H       -0.31487479      -0.96908577      -1.15722900
H       -0.68181569       0.75723303      -1.15722900
H        0.99669078       0.21185369      -1.15722900
