21
Properties=species:S:1:pos:R:3:initial_charges:R:1 pbc="F F F"
N        2.76785350      -0.08058165       1.91414063       0.03000000
N        0.27638546       1.42108442      -0.88958984      -0.62000000
N        2.53753221       1.38345097       0.01221550      -0.57000000
N       -3.68270000       0.15740000      -0.31090000       0.30000000
N       -3.47290000      -1.03050000       0.28160000      -0.71000000
C        0.74092405       0.04699364       0.98944150       0.00000000
C       -0.15510000       0.53860000       0.04110000       0.36000000
C        2.04844260       0.51014148       0.90969101       0.11000000
C       -1.52450000       0.13410000       0.02560000      -0.05000000
C        0.68691753      -0.85266534       2.08466722      -0.15000000
C        1.94948217      -0.91197130       2.63525874      -0.30000000
C       -2.54790000       0.89340000      -0.48720000      -0.30000000
C       -2.15270000      -1.03900000       0.48480000       0.14000000
C        1.57819577       1.78376644      -0.84683052       0.47000000
H       -0.16045996      -1.41769651       2.44484486       0.15000000
H        3.75037711       0.07220049       2.09523952       0.27000000
H        2.33842121      -1.47370605       3.47287464       0.15000000
H       -2.57940000       1.86810000      -0.95420000       0.15000000
H       -1.72360000      -1.89970000       0.97690000       0.15000000
H        1.89215433       2.49204792      -1.60604439       0.15000000
H       -4.62960000       0.40350000      -0.57060000       0.27000000
