21
Properties=species:S:1:pos:R:3:initial_charges:R:1 pbc="F F F"
N        2.30980780       1.45179058       2.39176730       0.03000000
N        0.50938125       0.64163224      -1.13320450      -0.62000000
N        2.55243760       1.33362123      -0.00425552      -0.57000000
N       -3.68270000       0.15740000      -0.31090000       0.30000000
N       -3.47290000      -1.03050000       0.28160000      -0.71000000
C        0.50734143       0.82842769       1.23318171       0.00000000
C       -0.15510000       0.53860000       0.04110000       0.36000000
C        1.83845473       1.21265620       1.12841228       0.11000000
C       -1.52450000       0.13410000       0.02560000      -0.05000000
C        0.18047792       0.84158466       2.61333006      -0.15000000
C        1.30952500       1.22895354       3.30321103      -0.30000000
C       -2.54790000       0.89340000      -0.48720000      -0.30000000
C       -2.15270000      -1.03900000       0.48480000       0.14000000
C        1.80427116       1.02748179      -1.08363709       0.47000000
H       -0.76024400       0.58847283       3.08024915       0.15000000
H        3.24997967       1.74624839       2.61729622       0.27000000
H        1.49063664       1.36238374       4.36047867       0.15000000
H       -2.57940000       1.86810000      -0.95420000       0.15000000
H       -1.72360000      -1.89970000       0.97690000       0.15000000
H        2.30818756       1.10028746      -2.04145020       0.15000000
H       -4.62960000       0.40350000      -0.57060000       0.27000000
