21
Properties=species:S:1:pos:R:3:initial_charges:R:1 pbc="F F F"
N        1.80982084       3.18663236       1.29103399       0.03000000
N        0.76388732      -0.24140926      -0.57387145      -0.62000000
N        2.56895576       1.27635923       0.03074458      -0.57000000
N       -3.68270000       0.15740000      -0.31090000       0.30000000
N       -3.47290000      -1.03050000       0.28160000      -0.71000000
C        0.25232468       1.71326851       0.67200930       0.00000000
C       -0.15510000       0.53860000       0.04110000       0.36000000
C        1.60930418       2.00777055       0.62357402       0.11000000
C       -1.52450000       0.13410000       0.02560000      -0.05000000
C       -0.37248732       2.76021682       1.39680691      -0.15000000
C        0.61079944       3.65333747       1.76588732      -0.30000000
C       -2.54790000       0.89340000      -0.48720000      -0.30000000
C       -2.15270000      -1.03900000       0.48480000       0.14000000
C        2.05133218       0.17029598      -0.54129461       0.47000000
H       -1.41761305       2.86883267       1.64770841       0.15000000
H        2.70369150       3.64172987       1.41502335       0.27000000
H        0.56426867       4.57646977       2.32631710       0.15000000
H       -2.57940000       1.86810000      -0.95420000       0.15000000
H       -1.72360000      -1.89970000       0.97690000       0.15000000
H        2.76273914      -0.47681439      -1.04307809       0.15000000
H       -4.62960000       0.40350000      -0.57060000       0.27000000
