21
Properties=species:S:1:pos:R:3:initial_charges:R:1 pbc="F F F"
N        2.00067966       2.65796243      -1.77445533       0.03000000
N        0.66711327       0.02643918       0.98598024      -0.62000000
N        2.56318316       1.29205141       0.13122971      -0.57000000
N       -3.68270000       0.15740000      -0.31090000       0.30000000
N       -3.47290000      -1.03050000       0.28160000      -0.71000000
C        0.34957281       1.44395098      -0.89138726       0.00000000
C       -0.15510000       0.53860000       0.04110000       0.36000000
C        1.69691694       1.76500933      -0.78158684       0.11000000
C       -1.52450000       0.13410000       0.02560000      -0.05000000
C       -0.16173434       2.17662487      -1.99301166      -0.15000000
C        0.87715634       2.91574584      -2.51755341      -0.30000000
C       -2.54790000       0.89340000      -0.48720000      -0.30000000
C       -2.15270000      -1.03900000       0.48480000       0.14000000
C        1.95763435       0.42949255       0.97256306       0.47000000
H       -1.17240472       2.19281687      -2.37422022       0.15000000
H        2.91207109       3.06461409      -1.93411733       0.27000000
H        0.91583574       3.60379259      -3.35032917       0.15000000
H       -2.57940000       1.86810000      -0.95420000       0.15000000
H       -1.72360000      -1.89970000       0.97690000       0.15000000
H        2.59013537       0.00078089       1.74248975       0.15000000
H       -4.62960000       0.40350000      -0.57060000       0.27000000
