21
Properties=species:S:1:pos:R:3:initial_charges:R:1 pbc="F F F"
N        2.12077152       2.26118452      -2.02975384       0.03000000
N        0.60603980       0.22821487       1.11602758      -0.62000000
N        2.55929510       1.30488582       0.13979645      -0.57000000
N       -3.68270000       0.15740000      -0.31090000       0.30000000
N       -3.47290000      -1.03050000       0.28160000      -0.71000000
C        0.41081055       1.24162648      -1.02162600       0.00000000
C       -0.15510000       0.53860000       0.04110000       0.36000000
C        1.75197743       1.58308900      -0.89855878       0.11000000
C       -1.52450000       0.13410000       0.02560000      -0.05000000
C       -0.02896670       1.73797388      -2.27544321      -0.15000000
C        1.04492867       2.36144181      -2.87442083      -0.30000000
C       -2.54790000       0.89340000      -0.48720000      -0.30000000
C       -2.15270000      -1.03900000       0.48480000       0.14000000
C        1.89838403       0.62523956       1.09886708       0.47000000
H       -1.01536519       1.67408966      -2.71130279       0.15000000
H        3.04326113       2.63117164      -2.21309591       0.27000000
H        1.13803394       2.86970456      -3.82385239       0.15000000
H       -2.57940000       1.86810000      -0.95420000       0.15000000
H       -1.72360000      -1.89970000       0.97690000       0.15000000
H        2.48109248       0.36103380       1.97481487       0.15000000
H       -4.62960000       0.40350000      -0.57060000       0.27000000
