21
Properties=species:S:1:pos:R:3:initial_charges:R:1 pbc="F F F"
N        2.22988461       1.89727145      -2.17276191       0.03000000
N        0.55054002       0.41331104       1.18893138      -0.62000000
N        2.55574889       1.31670427       0.14467479      -0.57000000
N       -3.68270000       0.15740000      -0.31090000       0.30000000
N       -3.47290000      -1.03050000       0.28160000      -0.71000000
C        0.46645246       1.05605165      -1.09459532       0.00000000
C       -0.15510000       0.53860000       0.04110000       0.36000000
C        1.80200074       1.41624936      -0.96406094       0.11000000
C       -1.52450000       0.13410000       0.02560000      -0.05000000
C        0.09167176       1.33562696      -2.43369928      -0.15000000
C        1.19737262       1.85301806      -3.07437841      -0.30000000
C       -2.54790000       0.89340000      -0.48720000      -0.30000000
C       -2.15270000      -1.03900000       0.48480000       0.14000000
C        1.84453475       0.80482710       1.16970900       0.47000000
H       -0.87253602       1.19782195      -2.90097853       0.15000000
H        3.16246172       2.23361735      -2.36939156       0.27000000
H        1.33997122       2.19623904      -4.08940792       0.15000000
H       -2.57940000       1.86810000      -0.95420000       0.15000000
H       -1.72360000      -1.89970000       0.97690000       0.15000000
H        2.38199501       0.69152776       2.10509025       0.15000000
H       -4.62960000       0.40350000      -0.57060000       0.27000000
