21
Properties=species:S:1:pos:R:3:initial_charges:R:1 pbc="F F F"
N        2.16363729       2.11856254      -2.09490095       0.03000000
N        0.58423734       0.30075299       1.14922957      -0.62000000
N        2.55790332       1.30951291       0.14200576      -0.57000000
N       -3.68270000       0.15740000      -0.31090000       0.30000000
N       -3.47290000      -1.03050000       0.28160000      -0.71000000
C        0.43266957       1.16889831      -1.05486465       0.00000000
C       -0.15510000       0.53860000       0.04110000       0.36000000
C        1.77162976       1.51770127      -0.92840160       0.11000000
C       -1.52450000       0.13410000       0.02560000      -0.05000000
C        0.01842603       1.58029211      -2.34752848      -0.15000000
C        1.10481629       2.16218755      -2.96550226      -0.30000000
C       -2.54790000       0.89340000      -0.48720000      -0.30000000
C       -2.15270000      -1.03900000       0.48480000       0.14000000
C        1.87723058       0.69561671       1.13112406       0.47000000
H       -0.95926858       1.48748507      -2.79756942       0.15000000
H        3.09008943       2.47536661      -2.28429240       0.27000000
H        1.21736099       2.60578330      -3.94477567       0.15000000
H       -2.57940000       1.86810000      -0.95420000       0.15000000
H       -1.72360000      -1.89970000       0.97690000       0.15000000
H        2.44216376       0.49055038       2.03413937       0.15000000
H       -4.62960000       0.40350000      -0.57060000       0.27000000
