21
Properties=species:S:1:pos:R:3:initial_charges:R:1 pbc="F F F"
N        2.05894344       2.46602303      -1.91296662       0.03000000
N        0.63748445       0.12404170       1.05652766      -0.62000000
N        2.56129907       1.29825223       0.13586446      -0.57000000
N       -3.68270000       0.15740000      -0.31090000       0.30000000
N       -3.47290000      -1.03050000       0.28160000      -0.71000000
C        0.37928250       1.34607892      -0.96204539       0.00000000
C       -0.15510000       0.53860000       0.04110000       0.36000000
C        1.72363068       1.67700421      -0.84505298       0.11000000
C       -1.52450000       0.13410000       0.02560000      -0.05000000
C       -0.09732217       1.96443436      -2.14623579      -0.15000000
C        0.95855124       2.64760926      -2.71116155      -0.30000000
C       -2.54790000       0.89340000      -0.48720000      -0.30000000
C       -2.15270000      -1.03900000       0.48480000       0.14000000
C        1.92889103       0.52417531       1.04107379       0.47000000
H       -1.09623948       1.94196848      -2.55696226       0.15000000
H        2.97571861       2.85494063      -2.08547238       0.27000000
H        1.02362881       3.24871093      -3.60718699       0.15000000
H       -2.57940000       1.86810000      -0.95420000       0.15000000
H       -1.72360000      -1.89970000       0.97690000       0.15000000
H        2.53723594       0.17503823       1.86851450       0.15000000
H       -4.62960000       0.40350000      -0.57060000       0.27000000
