21
Properties=species:S:1:pos:R:3:initial_charges:R:1 pbc="F F F"
N        1.79333550       3.32605906      -0.89109921       0.03000000
N        0.77251145      -0.31314550       0.53628544      -0.62000000
N        2.56982841       1.27067513       0.10198399      -0.57000000
N       -3.68270000       0.15740000      -0.31090000       0.30000000
N       -3.47290000      -1.03050000       0.28160000      -0.71000000
C        0.24385555       1.78458252      -0.44082277       0.00000000
C       -0.15510000       0.53860000       0.04110000       0.36000000
C        1.60183471       2.07138911      -0.37674948       0.11000000
C       -1.52450000       0.13410000       0.02560000      -0.05000000
C       -0.39092206       2.91508283      -1.01601734      -0.15000000
C        0.58753609       3.84892477      -1.28303153      -0.30000000
C       -2.54790000       0.89340000      -0.48720000      -0.30000000
C       -2.15270000      -1.03900000       0.48480000       0.14000000
C        2.05985503       0.10016204       0.53599458       0.47000000
H       -1.44281353       3.06373303      -1.21214025       0.15000000
H        2.68558492       3.79437904      -0.96894022       0.27000000
H        0.53246092       4.83895059      -1.71342147       0.15000000
H       -2.57940000       1.86810000      -0.95420000       0.15000000
H       -1.72360000      -1.89970000       0.97690000       0.15000000
H        2.77828731      -0.60541401       0.93930074       0.15000000
H       -4.62960000       0.40350000      -0.57060000       0.27000000
