21
Properties=species:S:1:pos:R:3:initial_charges:R:1 pbc="F F F"
N        2.98000639      -0.68675486      -1.01006015       0.03000000
N        0.16876194       1.72841611       0.59840881      -0.62000000
N        2.53104168       1.40174890       0.10812650      -0.57000000
N       -3.68270000       0.15740000      -0.31090000       0.30000000
N       -3.47290000      -1.03050000       0.28160000      -0.71000000
C        0.84903583      -0.26186259      -0.50190865       0.00000000
C       -0.15510000       0.53860000       0.04110000       0.36000000
C        2.14581092       0.23187135      -0.43069092       0.11000000
C       -1.52450000       0.13410000       0.02560000      -0.05000000
C        0.92122980      -1.52200073      -1.14894981      -0.15000000
C        2.24560720      -1.75790389      -1.45079732      -0.30000000
C       -2.54790000       0.89340000      -0.48720000      -0.30000000
C       -2.15270000      -1.03900000       0.48480000       0.14000000
C        1.47395921       2.08131210       0.59731914       0.47000000
H        0.11290036      -2.19609810      -1.39232812       0.15000000
H        3.98202688      -0.58960881      -1.09955562       0.27000000
H        2.72949721      -2.59015453      -1.94235529       0.15000000
H       -2.57940000       1.86810000      -0.95420000       0.15000000
H       -1.72360000      -1.89970000       0.97690000       0.15000000
H        1.70016688       3.04018092       1.05123437       0.15000000
H       -4.62960000       0.40350000      -0.57060000       0.27000000
