21
Properties=species:S:1:pos:R:3:initial_charges:R:1 pbc="F F F"
N        1.78852677       3.26413564       1.14974544       0.03000000
N        0.77473679      -0.28089251      -0.50201841      -0.62000000
N        2.56967369       1.27375347       0.03531871      -0.57000000
N       -3.68270000       0.15740000      -0.31090000       0.30000000
N       -3.47290000      -1.03050000       0.28160000      -0.71000000
C        0.24146103       1.75280721       0.59996290       0.00000000
C       -0.15510000       0.53860000       0.04110000       0.36000000
C        1.59954861       2.04327945       0.55879509       0.11000000
C       -1.52450000       0.13410000       0.02560000      -0.05000000
C       -0.39604662       2.84596026       1.24060536      -0.15000000
C        0.58103132       3.76167844       1.56850265      -0.30000000
C       -2.54790000       0.89340000      -0.48720000      -0.30000000
C       -2.15270000      -1.03900000       0.48480000       0.14000000
C        2.06187090       0.13194689      -0.47158660       0.47000000
H       -1.44576504       2.97121846       1.46295276       0.15000000
H        2.68042133       3.72642339       1.26067781       0.27000000
H        0.52475974       4.72024107       2.06490075       0.15000000
H       -2.57940000       1.86810000      -0.95420000       0.15000000
H       -1.72360000      -1.89970000       0.97690000       0.15000000
H        2.78212283      -0.54735212      -0.91478901       0.15000000
H       -4.62960000       0.40350000      -0.57060000       0.27000000
