21
Properties=species:S:1:pos:R:3:initial_charges:R:1 pbc="F F F"
N        1.78342390       3.35675480      -0.81648549       0.03000000
N        0.77754625      -0.32873527       0.49831170      -0.62000000
N        2.57014112       1.26971058       0.09952818      -0.57000000
N       -3.68270000       0.15740000      -0.31090000       0.30000000
N       -3.47290000      -1.03050000       0.28160000      -0.71000000
C        0.23880291       1.80022960      -0.40276798       0.00000000
C       -0.15510000       0.53860000       0.04110000       0.36000000
C        1.59728823       2.08547035      -0.34255062       0.11000000
C       -1.52450000       0.13410000       0.02560000      -0.05000000
C       -0.40187477       2.94900046      -0.93350329      -0.15000000
C        0.57369489       3.89178766      -1.17876611      -0.30000000
C       -2.54790000       0.89340000      -0.48720000      -0.30000000
C       -2.15270000      -1.03900000       0.48480000       0.14000000
C        2.06473576       0.08505113       0.49913592       0.47000000
H       -1.45568656       3.10355829      -1.11413922       0.15000000
H        2.67475971       3.82790306      -0.88741957       0.27000000
H        0.51415367       4.89563223      -1.57521385       0.15000000
H       -2.57940000       1.86810000      -0.95420000       0.15000000
H       -1.72360000      -1.89970000       0.97690000       0.15000000
H        2.78727300      -0.63323560       0.87148315       0.15000000
H       -4.62960000       0.40350000      -0.57060000       0.27000000
