21
Properties=species:S:1:pos:R:3:initial_charges:R:1 pbc="F F F"
N        2.75796271       0.09894011      -1.89696323       0.03000000
N        0.28183098       1.32835181       1.04932886      -0.62000000
N        2.53843823       1.37561471       0.13667135      -0.57000000
N       -3.68270000       0.15740000      -0.31090000       0.30000000
N       -3.47290000      -1.03050000       0.28160000      -0.71000000
C        0.73577188       0.13891145      -0.95413057       0.00000000
C       -0.15510000       0.53860000       0.04110000       0.36000000
C        2.04406136       0.59191921      -0.83736833       0.11000000
C       -1.52450000       0.13410000       0.02560000      -0.05000000
C        0.67562093      -0.65294469      -2.12936164      -0.15000000
C        1.93526212      -0.65978335      -2.68971423      -0.30000000
C       -2.54790000       0.89340000      -0.48720000      -0.30000000
C       -2.15270000      -1.03900000       0.48480000       0.14000000
C        1.58374866       1.69286938       1.03470043       0.47000000
H       -0.17969064      -1.16118502      -2.55027807       0.15000000
H        3.73940332       0.26889639      -2.06837221       0.27000000
H        2.31786369      -1.13374907      -3.58268255       0.15000000
H       -2.57940000       1.86810000      -0.95420000       0.15000000
H       -1.72360000      -1.89970000       0.97690000       0.15000000
H        1.90213681       2.32558178       1.85624918       0.15000000
H       -4.62960000       0.40350000      -0.57060000       0.27000000
