21
Properties=species:S:1:pos:R:3:initial_charges:R:1 pbc="F F F"
N        1.87503974       2.95335669       1.61679256       0.03000000
N        0.73066950      -0.12260584      -0.73951595      -0.62000000
N        2.56677326       1.28415084       0.02022901      -0.57000000
N       -3.68270000       0.15740000      -0.31090000       0.30000000
N       -3.47290000      -1.03050000       0.28160000      -0.71000000
C        0.28559453       1.59427127       0.83811570       0.00000000
C       -0.15510000       0.53860000       0.04110000       0.36000000
C        1.63918755       1.90087950       0.77293806       0.11000000
C       -1.52450000       0.13410000       0.02560000      -0.05000000
C       -0.30034068       2.50217101       1.75693034      -0.15000000
C        0.70196115       3.32727936       2.22096155      -0.30000000
C       -2.54790000       0.89340000      -0.48720000      -0.30000000
C       -2.15270000      -1.03900000       0.48480000       0.14000000
C        2.01907325       0.28566309      -0.70198000       0.47000000
H       -1.33156570       2.56121640       2.07335624       0.15000000
H        2.77495801       3.38682727       1.77087763       0.27000000
H        0.68521252       4.14393341       2.92892733       0.15000000
H       -2.57940000       1.86810000      -0.95420000       0.15000000
H       -1.72360000      -1.89970000       0.97690000       0.15000000
H        2.70339927      -0.26459215      -1.33881233       0.15000000
H       -4.62960000       0.40350000      -0.57060000       0.27000000
