21
Properties=species:S:1:pos:R:3:initial_charges:R:1 pbc="F F F"
N        2.54929224       0.81717134      -2.20478176       0.03000000
N        0.38803313       0.96282342       1.20565267      -0.62000000
N        2.54530895       1.35198445       0.14632812      -0.57000000
N       -3.68270000       0.15740000      -0.31090000       0.30000000
N       -3.47290000      -1.03050000       0.28160000      -0.71000000
C        0.62934447       0.50522481      -1.11103736       0.00000000
C       -0.15510000       0.53860000       0.04110000       0.36000000
C        1.94841888       0.92111967      -0.97857997       0.11000000
C       -1.52450000       0.13410000       0.02560000      -0.05000000
C        0.44485418       0.14132926      -2.46947975      -0.15000000
C        1.64366363       0.34386852      -3.11953472      -0.30000000
C       -2.54790000       0.89340000      -0.48720000      -0.30000000
C       -2.15270000      -1.03900000       0.48480000       0.14000000
C        1.68683341       1.33807894       1.18621529       0.47000000
H       -0.45379575      -0.21792877      -2.94947840       0.15000000
H        3.51141563       1.05361104      -2.40454837       0.27000000
H        1.93133160       0.19660052      -4.15102838       0.15000000
H       -2.57940000       1.86810000      -0.95420000       0.15000000
H       -1.72360000      -1.89970000       0.97690000       0.15000000
H        2.09180512       1.67278619       2.13521862       0.15000000
H       -4.62960000       0.40350000      -0.57060000       0.27000000
