21
Properties=species:S:1:pos:R:3:initial_charges:R:1 pbc="F F F"
N        2.85532596      -0.36617808       1.63923530       0.03000000
N        0.23191044       1.56628696      -0.74961137      -0.62000000
N        2.53471383       1.39264193       0.02136057      -0.57000000
N       -3.68270000       0.15740000      -0.31090000       0.30000000
N       -3.47290000      -1.03050000       0.28160000      -0.71000000
C        0.78552585      -0.09862860       0.84921524       0.00000000
C       -0.15510000       0.53860000       0.04110000       0.36000000
C        2.08855110       0.37918486       0.78371482       0.11000000
C       -1.52450000       0.13410000       0.02560000      -0.05000000
C        0.78361437      -1.16837246       1.78059420      -0.15000000
C        2.07167478      -1.31092096       2.25103870      -0.30000000
C       -2.54790000       0.89340000      -0.48720000      -0.30000000
C       -2.15270000      -1.03900000       0.48480000       0.14000000
C        1.53505468       1.92460889      -0.71091784       0.47000000
H       -0.04622173      -1.79056437       2.08272998       0.15000000
H        3.84592934      -0.23977309       1.79485846       0.27000000
H        2.50021345      -2.00191312       2.96329171       0.15000000
H       -2.57940000       1.86810000      -0.95420000       0.15000000
H       -1.72360000      -1.89970000       0.97690000       0.15000000
H        1.81275296       2.75127351      -1.35601289       0.15000000
H       -4.62960000       0.40350000      -0.57060000       0.27000000
