21
Properties=species:S:1:pos:R:3:initial_charges:R:1 pbc="F F F"
N        2.36670923       1.43718363      -2.25418863       0.03000000
N        0.48093429       0.64736074       1.23054252      -0.62000000
N        2.55128708       1.33169746       0.14759452      -0.57000000
N       -3.68270000       0.15740000      -0.31090000       0.30000000
N       -3.47290000      -1.03050000       0.28160000      -0.71000000
C        0.53622858       0.82142367      -1.13616934       0.00000000
C       -0.15510000       0.53860000       0.04110000       0.36000000
C        1.86472458       1.20533089      -1.00131968       0.11000000
C       -1.52450000       0.13410000       0.02560000      -0.05000000
C        0.24295810       0.82691628      -2.52389575      -0.15000000
C        1.38854317       1.21019307      -3.18832894      -0.30000000
C       -2.54790000       0.89340000      -0.48720000      -0.30000000
C       -2.15270000      -1.03900000       0.48480000       0.14000000
C        1.77699213       1.03193494       1.21020860       0.47000000
H       -0.69327154       0.59513437      -3.01050439       0.15000000
H        3.31194010       1.73098281      -2.45842503       0.27000000
H        1.59325234       1.34459249      -4.24115887       0.15000000
H       -2.57940000       1.86810000      -0.95420000       0.15000000
H       -1.72360000      -1.89970000       0.97690000       0.15000000
H        2.25770409       1.10945231       2.17951012       0.15000000
H       -4.62960000       0.40350000      -0.57060000       0.27000000
