21
Properties=species:S:1:pos:R:3:initial_charges:R:1 pbc="F F F"
N        1.72716345       3.50141098       0.37897526       0.03000000
N        0.80604120      -0.40189398      -0.10996520      -0.62000000
N        2.57179813       1.26560118       0.06037616      -0.57000000
N       -3.68270000       0.15740000      -0.31090000       0.30000000
N       -3.47290000      -1.03050000       0.28160000      -0.71000000
C        0.21014484       1.87388685       0.20690942       0.00000000
C       -0.15510000       0.53860000       0.04110000       0.36000000
C        1.57145047       2.15194369       0.20543446       0.11000000
C       -1.52450000       0.13410000       0.02560000      -0.05000000
C       -0.46397198       3.10857070       0.38841605      -0.15000000
C        0.49521010       4.09348300       0.49164014      -0.30000000
C       -2.54790000       0.89340000      -0.48720000      -0.30000000
C       -2.15270000      -1.03900000       0.48480000       0.14000000
C        2.09230431       0.01434080      -0.09118931       0.47000000
H       -1.52748838       3.28655021       0.45393638       0.15000000
H        2.61334743       3.98576197       0.41864784       0.27000000
H        0.41069230       5.16106866       0.63839674       0.15000000
H       -2.57940000       1.86810000      -0.95420000       0.15000000
H       -1.72360000      -1.89970000       0.97690000       0.15000000
H        2.83807604      -0.76360138      -0.21475644       0.15000000
H       -4.62960000       0.40350000      -0.57060000       0.27000000
