21
Properties=species:S:1:pos:R:3:initial_charges:R:1 pbc="F F F"
N        3.02035161      -0.83769713      -0.63538911       0.03000000
N        0.14819420       1.80534857       0.40784611      -0.62000000
N        2.52966509       1.40687520       0.09596609      -0.57000000
N       -3.68270000       0.15740000      -0.31090000       0.30000000
N       -3.47290000      -1.03050000       0.28160000      -0.71000000
C        0.86962189      -0.33887610      -0.31084925       0.00000000
C       -0.15510000       0.53860000       0.04110000       0.36000000
C        2.16429021       0.16272913      -0.25891723       0.11000000
C       -1.52450000       0.13410000       0.02560000      -0.05000000
C        0.96587696      -1.68902296      -0.73471332      -0.15000000
C        2.30201915      -1.96893971      -0.92734868      -0.30000000
C       -2.54790000       0.89340000      -0.48720000      -0.30000000
C       -2.15270000      -1.03900000       0.48480000       0.14000000
C        1.45397303       2.15605833       0.41243118       0.47000000
H        0.16641485      -2.39605332      -0.90206074       0.15000000
H        4.02612087      -0.75456934      -0.69025100       0.27000000
H        2.80441658      -2.87035588      -1.24900941       0.15000000
H       -2.57940000       1.86810000      -0.95420000       0.15000000
H       -1.72360000      -1.89970000       0.97690000       0.15000000
H        1.66341323       3.17764529       0.71098306       0.15000000
H       -4.62960000       0.40350000      -0.57060000       0.27000000
