21
Properties=species:S:1:pos:R:3:initial_charges:R:1 pbc="F F F"
N        2.68934368       0.17831217       2.09406301       0.03000000
N        0.31631071       1.28943258      -0.98123283      -0.62000000
N        2.54007203       1.37508353       0.00618971      -0.57000000
N       -3.68270000       0.15740000      -0.31090000       0.30000000
N       -3.47290000      -1.03050000       0.28160000      -0.71000000
C        0.70089037       0.17900717       1.08122548       0.00000000
C       -0.15510000       0.53860000       0.04110000       0.36000000
C        2.01244639       0.62884457       0.99213039       0.11000000
C       -1.52450000       0.13410000       0.02560000      -0.05000000
C        0.60012216      -0.56645399       2.28370449      -0.15000000
C        1.83980271      -0.55029791       2.88675411      -0.30000000
C       -2.54790000       0.89340000      -0.48720000      -0.30000000
C       -2.15270000      -1.03900000       0.48480000       0.14000000
C        1.61692826       1.65605129      -0.93583026       0.47000000
H       -0.26310285      -1.07930605       2.68227956       0.15000000
H        3.66461245       0.35501558       2.29184714       0.27000000
H        2.19316723      -0.99474714       3.80654664       0.15000000
H       -2.57940000       1.86810000      -0.95420000       0.15000000
H       -1.72360000      -1.89970000       0.97690000       0.15000000
H        1.96343751       2.25699810      -1.76975629       0.15000000
H       -4.62960000       0.40350000      -0.57060000       0.27000000
