21
Properties=species:S:1:pos:R:3:initial_charges:R:1 pbc="F F F"
N        3.04136972      -0.92403019      -0.23928997       0.03000000
N        0.13745752       1.84941757       0.20635560      -0.62000000
N        2.52891724       1.40990120       0.08306905      -0.57000000
N       -3.68270000       0.15740000      -0.31090000       0.30000000
N       -3.47290000      -1.03050000       0.28160000      -0.71000000
C        0.88035202      -0.38294223      -0.10885518       0.00000000
C       -0.15510000       0.53860000       0.04110000       0.36000000
C        2.17390906       0.12320711      -0.07733029       0.11000000
C       -1.52450000       0.13410000       0.02560000      -0.05000000
C        0.98915516      -1.78461117      -0.29676049      -0.15000000
C        2.33142841      -2.08970845      -0.37393481      -0.30000000
C       -2.54790000       0.89340000      -0.48720000      -0.30000000
C       -2.15270000      -1.03900000       0.48480000       0.14000000
C        1.44352581       2.19891819       0.21692186       0.47000000
H        0.19462370      -2.51142985      -0.38331175       0.15000000
H        4.04910077      -0.84894739      -0.25752565       0.27000000
H        2.84356464      -3.03098211      -0.51585127       0.15000000
H       -2.57940000       1.86810000      -0.95420000       0.15000000
H       -1.72360000      -1.89970000       0.97690000       0.15000000
H        1.64421367       3.25643019       0.35120180       0.15000000
H       -4.62960000       0.40350000      -0.57060000       0.27000000
