21
Properties=species:S:1:pos:R:3:initial_charges:R:1 pbc="F F F"
N        2.98957097      -0.72191922      -0.93739887       0.03000000
N        0.16388773       1.74633337       0.56145466      -0.62000000
N        2.53071781       1.40293559       0.10577150      -0.57000000
N       -3.68270000       0.15740000      -0.31090000       0.30000000
N       -3.47290000      -1.03050000       0.28160000      -0.71000000
C        0.85391568      -0.27980269      -0.46485644       0.00000000
C       -0.15510000       0.53860000       0.04110000       0.36000000
C        2.15019243       0.21576161      -0.39737737       0.11000000
C       -1.52450000       0.13410000       0.02560000      -0.05000000
C        0.93181271      -1.56090650      -1.06861751      -0.15000000
C        2.25897899      -1.80706280      -1.34928535      -0.30000000
C       -2.54790000       0.89340000      -0.48720000      -0.30000000
C       -2.15270000      -1.03900000       0.48480000       0.14000000
C        1.46922396       2.09871672       0.56146697       0.47000000
H        0.12556041      -2.24259956      -1.29728442       0.15000000
H        3.99247946      -0.62803677      -1.02017868       0.27000000
H        2.74724871      -2.65540269      -1.80790503       0.15000000
H       -2.57940000       1.86810000      -0.95420000       0.15000000
H       -1.72360000      -1.89970000       0.97690000       0.15000000
H        1.69145797       3.07219247       0.98525389       0.15000000
H       -4.62960000       0.40350000      -0.57060000       0.27000000
