21
Properties=species:S:1:pos:R:3:initial_charges:R:1 pbc="F F F"
N        2.83889723      -0.31282415       1.69832109       0.03000000
N        0.24026275       1.53916366      -0.77969394      -0.62000000
N        2.53524203       1.39092891       0.01939952      -0.57000000
N       -3.68270000       0.15740000      -0.31090000       0.30000000
N       -3.47290000      -1.03050000       0.28160000      -0.71000000
C        0.77714914      -0.07142481       0.87935343       0.00000000
C       -0.15510000       0.53860000       0.04110000       0.36000000
C        2.08101778       0.40365067       0.81079224       0.11000000
C       -1.52450000       0.13410000       0.02560000      -0.05000000
C        0.76545387      -1.10939585       1.84594626      -0.15000000
C        2.04872584      -1.23639360       2.33361655      -0.30000000
C       -2.54790000       0.89340000      -0.48720000      -0.30000000
C       -2.15270000      -1.03900000       0.48480000       0.14000000
C        1.54315595       1.89830188      -0.74012456       0.47000000
H       -0.06766524      -1.72094969       2.16051134       0.15000000
H        3.82798344      -0.18149264       1.85941848       0.27000000
H        2.46983068      -1.90325108       3.07279970       0.15000000
H       -2.57940000       1.86810000      -0.95420000       0.15000000
H       -1.72360000      -1.89970000       0.97690000       0.15000000
H        1.82766386       2.70285290      -1.40974479       0.15000000
H       -4.62960000       0.40350000      -0.57060000       0.27000000
