21
Properties=species:S:1:pos:R:3:initial_charges:R:1 pbc="F F F"
N        3.04242207      -0.94313086       0.16620202       0.03000000
N        0.13687813       1.85928409       0.00005946      -0.62000000
N        2.52882084       1.41073495       0.06982726      -0.57000000
N       -3.68270000       0.15740000      -0.31090000       0.30000000
N       -3.47290000      -1.03050000       0.28160000      -0.71000000
C        0.88090020      -0.39272206       0.09793606       0.00000000
C       -0.15510000       0.53860000       0.04110000       0.36000000
C        2.17437522       0.11450616       0.10855248       0.11000000
C       -1.52450000       0.13410000       0.02560000      -0.05000000
C        0.99035709      -1.80586095       0.15160171      -0.15000000
C        2.33294139      -2.11654062       0.19262909      -0.30000000
C       -2.54790000       0.89340000      -0.48720000      -0.30000000
C       -2.15270000      -1.03900000       0.48480000       0.14000000
C        1.44293500       2.20858941       0.01673164       0.47000000
H        0.19666980      -2.53872204       0.14815692       0.15000000
H        4.05026836      -0.86987535       0.18547230       0.27000000
H        2.84575191      -3.06715269       0.23484249       0.15000000
H       -2.57940000       1.86810000      -0.95420000       0.15000000
H       -1.72360000      -1.89970000       0.97690000       0.15000000
H        1.64315156       3.27414177      -0.01717764       0.15000000
H       -4.62960000       0.40350000      -0.57060000       0.27000000
