21
Properties=species:S:1:pos:R:3:initial_charges:R:1 pbc="F F F"
N        3.03875159      -0.91208732      -0.31965282       0.03000000
N        0.13879830       1.84331192       0.24723736      -0.62000000
N        2.52901514       1.40946938       0.08568880      -0.57000000
N       -3.68270000       0.15740000      -0.31090000       0.30000000
N       -3.47290000      -1.03050000       0.28160000      -0.71000000
C        0.87901454      -0.37684390      -0.14983747       0.00000000
C       -0.15510000       0.53860000       0.04110000       0.36000000
C        2.17271213       0.12867092      -0.11417087       0.11000000
C       -1.52450000       0.13410000       0.02560000      -0.05000000
C        0.98625257      -1.77137983      -0.38561679      -0.15000000
C        2.32776178      -2.07299285      -0.48621672      -0.30000000
C       -2.54790000       0.89340000      -0.48720000      -0.30000000
C       -2.15270000      -1.03900000       0.48480000       0.14000000
C        1.44483262       2.19297399       0.25659150       0.47000000
H        0.19105888      -2.49532721      -0.48859216       0.15000000
H        4.04623690      -0.83588781      -0.34532034       0.27000000
H        2.83866987      -3.00871099      -0.66461064       0.15000000
H       -2.57940000       1.86810000      -0.95420000       0.15000000
H       -1.72360000      -1.89970000       0.97690000       0.15000000
H        1.64661338       3.24550890       0.42420162       0.15000000
H       -4.62960000       0.40350000      -0.57060000       0.27000000
