21
Properties=species:S:1:pos:R:3:initial_charges:R:1 pbc="F F F"
N        1.72978158       3.48946811       0.45933811       0.03000000
N        0.80470042      -0.39578833      -0.15084696      -0.62000000
N        2.57170023       1.26603299       0.05775640      -0.57000000
N       -3.68270000       0.15740000      -0.31090000       0.30000000
N       -3.47290000      -1.03050000       0.28160000      -0.71000000
C        0.21148232       1.86778852       0.24789171       0.00000000
C       -0.15510000       0.53860000       0.04110000       0.36000000
C        1.57264740       2.14647989       0.24227504       0.11000000
C       -1.52450000       0.13410000       0.02560000      -0.05000000
C       -0.46106939       3.09533936       0.47727235      -0.15000000
C        0.49887674       4.07676740       0.60392205      -0.30000000
C       -2.54790000       0.89340000      -0.48720000      -0.30000000
C       -2.15270000      -1.03900000       0.48480000       0.14000000
C        2.09099750       0.02028500      -0.13085896       0.47000000
H       -1.52392355       3.27044757       0.55921679       0.15000000
H        2.61621130       3.97270238       0.50644253       0.27000000
H        0.41558707       5.13879754       0.78715610       0.15000000
H       -2.57940000       1.86810000      -0.95420000       0.15000000
H       -1.72360000      -1.89970000       0.97690000       0.15000000
H        2.83567632      -0.75268009      -0.28775627       0.15000000
H       -4.62960000       0.40350000      -0.57060000       0.27000000
