21
Properties=species:S:1:pos:R:3:initial_charges:R:1 pbc="F F F"
N        2.01966460       2.59554884      -1.82295060       0.03000000
N        0.65745924       0.05817566       1.01067824      -0.62000000
N        2.56256975       1.29406596       0.13284973      -0.57000000
N       -3.68270000       0.15740000      -0.31090000       0.30000000
N       -3.47290000      -1.03050000       0.28160000      -0.71000000
C        0.35925345       1.41212592      -0.91612543       0.00000000
C       -0.15510000       0.53860000       0.04110000       0.36000000
C        1.70562160       1.73639194      -0.80380817       0.11000000
C       -1.52450000       0.13410000       0.02560000      -0.05000000
C       -0.14074630       2.10762726      -2.04665649      -0.15000000
C        0.90367808       2.82855618      -2.58533721      -0.30000000
C       -2.54790000       0.89340000      -0.48720000      -0.30000000
C       -2.15270000      -1.03900000       0.48480000       0.14000000
C        1.94826908       0.46027882       0.99654680       0.47000000
H       -1.14759221       2.11126684      -2.43817254       0.15000000
H        2.93281014       2.99643437      -1.98710865       0.27000000
H        0.95095755       3.48833636      -3.44024930       0.15000000
H       -2.57940000       1.86810000      -0.95420000       0.15000000
H       -1.72360000      -1.89970000       0.97690000       0.15000000
H        2.57289926       0.05744169       1.78660866       0.15000000
H       -4.62960000       0.40350000      -0.57060000       0.27000000
