21
Properties=species:S:1:pos:R:3:initial_charges:R:1 pbc="F F F"
N        2.07918949       2.39906861      -1.95437771       0.03000000
N        0.62718802       0.15809102       1.07762323      -0.62000000
N        2.56064334       1.30041884       0.13725550      -0.57000000
N       -3.68270000       0.15740000      -0.31090000       0.30000000
N       -3.47290000      -1.03050000       0.28160000      -0.71000000
C        0.38960649       1.31193744      -0.98317124       0.00000000
C       -0.15510000       0.53860000       0.04110000       0.36000000
C        1.73291315       1.64630623      -0.86402621       0.11000000
C       -1.52450000       0.13410000       0.02560000      -0.05000000
C       -0.07493898       1.89041352      -2.19204893      -0.15000000
C        0.98683581       2.55407246      -2.76904878      -0.30000000
C       -2.54790000       0.89340000      -0.48720000      -0.30000000
C       -2.15270000      -1.03900000       0.48480000       0.14000000
C        1.91890186       0.55720770       1.06156281       0.47000000
H       -1.06976182       1.85442641      -2.61165492       0.15000000
H        2.99783575       2.78179899      -2.13072495       0.27000000
H        1.06108971       3.12483368      -3.68400117       0.15000000
H       -2.57940000       1.86810000      -0.95420000       0.15000000
H       -1.72360000      -1.89970000       0.97690000       0.15000000
H        2.51885219       0.23583070       1.90620165       0.15000000
H       -4.62960000       0.40350000      -0.57060000       0.27000000
