21
Properties=species:S:1:pos:R:3:initial_charges:R:1 pbc="F F F"
N        2.80439879      -0.20033008       1.81047094       0.03000000
N        0.25780294       1.48197100      -0.83679769      -0.62000000
N        2.53635301       1.38731066       0.01567097      -0.57000000
N       -3.68270000       0.15740000      -0.31090000       0.30000000
N       -3.47290000      -1.03050000       0.28160000      -0.71000000
C        0.75955864      -0.01406578       0.93655945       0.00000000
C       -0.15510000       0.53860000       0.04110000       0.36000000
C        2.06519916       0.45523393       0.86218584       0.11000000
C       -1.52450000       0.13410000       0.02560000      -0.05000000
C        0.72731774      -0.98504266       1.96999391      -0.15000000
C        2.00053443      -1.07925200       2.49036068      -0.30000000
C       -2.54790000       0.89340000      -0.48720000      -0.30000000
C       -2.15270000      -1.03900000       0.48480000       0.14000000
C        1.56016980       1.84282750      -0.79556864       0.47000000
H       -0.11271377      -1.57410161       2.30821477       0.15000000
H        3.79029856      -0.05860941       1.98196072       0.27000000
H        2.40602329      -1.69520238       3.28067948       0.15000000
H       -2.57940000       1.86810000      -0.95420000       0.15000000
H       -1.72360000      -1.89970000       0.97690000       0.15000000
H        1.85897816       2.60074950      -1.51174331       0.15000000
H       -4.62960000       0.40350000      -0.57060000       0.27000000
