21
Properties=species:S:1:pos:R:3:initial_charges:R:1 pbc="F F F"
N        2.33274571       1.37395308       2.39654756       0.03000000
N        0.49771022       0.68123549      -1.13560555      -0.62000000
N        2.55168678       1.33616736      -0.00436802      -0.57000000
N       -3.68270000       0.15740000      -0.31090000       0.30000000
N       -3.47290000      -1.03050000       0.28160000      -0.71000000
C        0.51903954       0.78873163       1.23561144       0.00000000
C       -0.15510000       0.53860000       0.04110000       0.36000000
C        1.84896930       1.17697560       1.13061504       0.11000000
C       -1.52450000       0.13410000       0.02560000      -0.05000000
C        0.20584200       0.75551524       2.61858878      -0.15000000
C        1.34157564       1.12019404       3.30986019      -0.30000000
C       -2.54790000       0.89340000      -0.48720000      -0.30000000
C       -2.15270000      -1.03900000       0.48480000       0.14000000
C        1.79294477       1.06591484      -1.08594700       0.47000000
H       -0.73016099       0.48640727       3.08604579       0.15000000
H        3.27503973       1.66121009       2.62250605       0.27000000
H        1.53310871       1.21826552       4.36916041       0.15000000
H       -2.57940000       1.86810000      -0.95420000       0.15000000
H       -1.72360000      -1.89970000       0.97690000       0.15000000
H        2.28734604       1.17100819      -2.04571839       0.15000000
H       -4.62960000       0.40350000      -0.57060000       0.27000000
