21
Properties=species:S:1:pos:R:3:initial_charges:R:1 pbc="F F F"
N        3.00272517      -0.83317231       0.80379601       0.03000000
N        0.15700626       1.80357405      -0.32437555      -0.62000000
N        2.53002149       1.40747112       0.04892726      -0.57000000
N       -3.68270000       0.15740000      -0.31090000       0.30000000
N       -3.47290000      -1.03050000       0.28160000      -0.71000000
C        0.86067347      -0.33670645       0.42310837       0.00000000
C       -0.15510000       0.53860000       0.04110000       0.36000000
C        2.15615256       0.16499830       0.40081320       0.11000000
C       -1.52450000       0.13410000       0.02560000      -0.05000000
C        0.94652238      -1.68447912       0.85665325      -0.15000000
C        2.27754157      -1.96312825       1.08354593      -0.30000000
C       -2.54790000       0.89340000      -0.48720000      -0.30000000
C       -2.15270000      -1.03900000       0.48480000       0.14000000
C        1.46242330       2.15467887      -0.29813703       0.47000000
H        0.14566869      -2.39811688       0.98468162       0.15000000
H        4.00692729      -0.74984049       0.88206320       0.27000000
H        2.77262915      -2.86484465       1.41553346       0.15000000
H       -2.57940000       1.86810000      -0.95420000       0.15000000
H       -1.72360000      -1.89970000       0.97690000       0.15000000
H        1.67905158       3.17480628      -0.59655050       0.15000000
H       -4.62960000       0.40350000      -0.57060000       0.27000000
