21
Properties=species:S:1:pos:R:3:initial_charges:R:1 pbc="F F F"
N        2.15332930       1.98582346       2.27985472       0.03000000
N        0.58900757       0.36989052      -1.07647911      -0.62000000
N        2.55757165       1.31611166      -0.00089797      -0.57000000
N       -3.68270000       0.15740000      -0.31090000       0.30000000
N       -3.47290000      -1.03050000       0.28160000      -0.71000000
C        0.42753666       1.10078473       1.17616404       0.00000000
C       -0.15510000       0.53860000       0.04110000       0.36000000
C        1.76672927       1.45744541       1.07703223       0.11000000
C       -1.52450000       0.13410000       0.02560000      -0.05000000
C        0.00744102       1.43212092       2.48976913      -0.15000000
C        1.09087266       1.97516626       3.14704789      -0.30000000
C       -2.54790000       0.89340000      -0.48720000      -0.30000000
C       -2.15270000      -1.03900000       0.48480000       0.14000000
C        1.88155181       0.76375074      -1.02872749       0.47000000
H       -0.96559544       1.28917079       2.93676136       0.15000000
H        3.07902076       2.32969684       2.49511797       0.27000000
H        1.20085274       2.35131752       4.15443784       0.15000000
H       -2.57940000       1.86810000      -0.95420000       0.15000000
H       -1.72360000      -1.89970000       0.97690000       0.15000000
H        2.45038557       0.61501189      -1.94028838       0.15000000
H       -4.62960000       0.40350000      -0.57060000       0.27000000
