21
Properties=species:S:1:pos:R:3:initial_charges:R:1 pbc="F F F"
N        3.02613047      -0.86024538      -0.55750550       0.03000000
N        0.14524555       1.81684903       0.36822995      -0.62000000
N        2.52946422       1.40765230       0.09343332      -0.57000000
N       -3.68270000       0.15740000      -0.31090000       0.30000000
N       -3.47290000      -1.03050000       0.28160000      -0.71000000
C        0.87257123      -0.35038273      -0.27113243       0.00000000
C       -0.15510000       0.53860000       0.04110000       0.36000000
C        2.16693613       0.15240340      -0.22321160       0.11000000
C       -1.52450000       0.13410000       0.02560000      -0.05000000
C        0.97227430      -1.71398028      -0.64860210      -0.15000000
C        2.31010188      -2.00047270      -0.81853497      -0.30000000
C       -2.54790000       0.89340000      -0.48720000      -0.30000000
C       -2.15270000      -1.03900000       0.48480000       0.14000000
C        1.45110605       2.16723717       0.37399245       0.47000000
H        0.17411981      -2.42604502      -0.80009457       0.15000000
H        4.03243775      -0.77921494      -0.60516661       0.27000000
H        2.81516194      -2.91225690      -1.10486312       0.15000000
H       -2.57940000       1.86810000      -0.95420000       0.15000000
H       -1.72360000      -1.89970000       0.97690000       0.15000000
H        1.65814248       3.19819953       0.64024586       0.15000000
H       -4.62960000       0.40350000      -0.57060000       0.27000000
