21
Properties=species:S:1:pos:R:3:initial_charges:R:1 pbc="F F F"
N        2.94119580      -0.64186241       1.24724472       0.03000000
N        0.18826350       1.70640358      -0.55006692      -0.62000000
N        2.53196575       1.40144847       0.03432673      -0.57000000
N       -3.68270000       0.15740000      -0.31090000       0.30000000
N       -3.47290000      -1.03050000       0.28160000      -0.71000000
C        0.82930702      -0.23918465       0.64927874       0.00000000
C       -0.15510000       0.53860000       0.04110000       0.36000000
C        2.12792965       0.25275616       0.60406458       0.11000000
C       -1.52450000       0.13410000       0.02560000      -0.05000000
C        0.87852807      -1.47308201       1.34705874      -0.15000000
C        2.19161582      -1.69597947       1.70322582      -0.30000000
C       -2.54790000       0.89340000      -0.48720000      -0.30000000
C       -2.15270000      -1.03900000       0.48480000       0.14000000
C        1.49272543       2.06048797      -0.51720335       0.47000000
H        0.06572283      -2.14978776       1.56718080       0.15000000
H        3.93972553      -0.54090022       1.36656306       0.27000000
H        2.65896950      -2.51153572       2.23695649       0.15000000
H       -2.57940000       1.86810000      -0.95420000       0.15000000
H       -1.72360000      -1.89970000       0.97690000       0.15000000
H        1.73483826       3.00139033      -0.99961654       0.15000000
H       -4.62960000       0.40350000      -0.57060000       0.27000000
