21
Properties=species:S:1:pos:R:3:initial_charges:R:1 pbc="F F F"
N        1.74505646       3.47179956      -0.42908088       0.03000000
N        0.79702509      -0.38712475       0.30116449      -0.62000000
N        2.57133654       1.26615123       0.08680216      -0.57000000
N       -3.68270000       0.15740000      -0.31090000       0.30000000
N       -3.47290000      -1.03050000       0.28160000      -0.71000000
C        0.21924709       1.85886304      -0.20518698       0.00000000
C       -0.15510000       0.53860000       0.04110000       0.36000000
C        1.57968503       2.13826015      -0.16497896       0.11000000
C       -1.52450000       0.13410000       0.02560000      -0.05000000
C       -0.44426305       3.07608617      -0.50509447      -0.15000000
C        0.52012640       4.05239549      -0.63742293      -0.30000000
C       -2.54790000       0.89340000      -0.48720000      -0.30000000
C       -2.15270000      -1.03900000       0.48480000       0.14000000
C        2.08361158       0.02848086       0.30778935       0.47000000
H       -1.50535565       3.25222098      -0.60557223       0.15000000
H        2.63286006       3.95353189      -0.46416038       0.27000000
H        0.44334502       5.10785513      -0.85771695       0.15000000
H       -2.57940000       1.86810000      -0.95420000       0.15000000
H       -1.72360000      -1.89970000       0.97690000       0.15000000
H        2.82203053      -0.73741308       0.51940759       0.15000000
H       -4.62960000       0.40350000      -0.57060000       0.27000000
