21
Properties=species:S:1:pos:R:3:initial_charges:R:1 pbc="F F F"
N        1.96413438       2.77771086      -1.67078565       0.03000000
N        0.68569579      -0.03444740       0.93318809      -0.62000000
N        2.56436236       1.28819171       0.12777424      -0.57000000
N       -3.68270000       0.15740000      -0.31090000       0.30000000
N       -3.47290000      -1.03050000       0.28160000      -0.71000000
C        0.33093822       1.50501040      -0.83850521       0.00000000
C       -0.15510000       0.53860000       0.04110000       0.36000000
C        1.68016038       1.81991688      -0.73408167       0.11000000
C       -1.52450000       0.13410000       0.02560000      -0.05000000
C       -0.20213456       2.30900219      -1.87833835      -0.15000000
C        0.82610408       3.08302654      -2.37265535      -0.30000000
C       -2.54790000       0.89340000      -0.48720000      -0.30000000
C       -2.15270000      -1.03900000       0.48480000       0.14000000
C        1.97566031       0.37043149       0.92130119       0.47000000
H       -1.22015090       2.34922197      -2.23759014       0.15000000
H        2.87214965       3.19542398      -1.82083853       0.27000000
H        0.84823365       3.82528893      -3.15813401       0.15000000
H       -2.57940000       1.86810000      -0.95420000       0.15000000
H       -1.72360000      -1.89970000       0.97690000       0.15000000
H        2.62331155      -0.10792070       1.64818867       0.15000000
H       -4.62960000       0.40350000      -0.57060000       0.27000000
