21
Properties=species:S:1:pos:R:3:initial_charges:R:1 pbc="F F F"
N        2.04944355       2.34369003       2.11883001       0.03000000
N        0.64188072       0.18775919      -0.99469655      -0.62000000
N        2.56099340       1.30433367       0.00416367      -0.57000000
N       -3.68270000       0.15740000      -0.31090000       0.30000000
N       -3.47290000      -1.03050000       0.28160000      -0.71000000
C        0.37455199       1.28330510       1.09408177       0.00000000
C       -0.15510000       0.53860000       0.04110000       0.36000000
C        1.71911436       1.62147210       1.00316483       0.11000000
C       -1.52450000       0.13410000       0.02560000      -0.05000000
C       -0.10744600       1.82787906       2.31184181      -0.15000000
C        0.94570072       2.47524951       2.92219515      -0.30000000
C       -2.54790000       0.89340000      -0.48720000      -0.30000000
C       -2.15270000      -1.03900000       0.48480000       0.14000000
C        1.93287350       0.58696797      -0.94945616       0.47000000
H       -1.10207034       1.75920105       2.72782558       0.15000000
H        2.96551767       2.72069064       2.31925604       0.27000000
H        1.00841472       3.01419400       3.85708856       0.15000000
H       -2.57940000       1.86810000      -0.95420000       0.15000000
H       -1.72360000      -1.89970000       0.97690000       0.15000000
H        2.54481321       0.28974258      -1.79433793       0.15000000
H       -4.62960000       0.40350000      -0.57060000       0.27000000
