21
Properties=species:S:1:pos:R:3:initial_charges:R:1 pbc="F F F"
N        2.58304665       0.53168962       2.26322274       0.03000000
N        0.37037488       1.10970623      -1.06743771      -0.62000000
N        2.54352216       1.36362289       0.00046259      -0.57000000
N       -3.68270000       0.15740000      -0.31090000       0.30000000
N       -3.47290000      -1.03050000       0.28160000      -0.71000000
C        0.64668534       0.35920654       1.16753055       0.00000000
C       -0.15510000       0.53860000       0.04110000       0.36000000
C        1.96371291       0.79085815       1.06962218       0.11000000
C       -1.52450000       0.13410000       0.02560000      -0.05000000
C        0.48260004      -0.17576506       2.47087385      -0.15000000
C        1.69129625      -0.05660425       3.12324788      -0.30000000
C       -2.54790000       0.89340000      -0.48720000      -0.30000000
C       -2.15270000      -1.03900000       0.48480000       0.14000000
C        1.66938253       1.48168097      -1.01957718       0.47000000
H       -0.40219676      -0.61699501       2.90617547       0.15000000
H        3.54848958       0.74105579       2.47671184       0.27000000
H        1.99645924      -0.34083939       4.12049701       0.15000000
H       -2.57940000       1.86810000      -0.95420000       0.15000000
H       -1.72360000      -1.89970000       0.97690000       0.15000000
H        2.05996961       1.93609902      -1.92378087       0.15000000
H       -4.62960000       0.40350000      -0.57060000       0.27000000
