21
Properties=species:S:1:pos:R:3:initial_charges:R:1 pbc="F F F"
N        2.93461960      -0.52250171      -1.28668771       0.03000000
N        0.19188413       1.64474739       0.73908424      -0.62000000
N        2.53256815       1.39623828       0.11707512      -0.57000000
N       -3.68270000       0.15740000      -0.31090000       0.30000000
N       -3.47290000      -1.03050000       0.28160000      -0.71000000
C        0.82588144      -0.17807019      -0.64296636       0.00000000
C       -0.15510000       0.53860000       0.04110000       0.36000000
C        2.12501664       0.30712865      -0.55752285       0.11000000
C       -1.52450000       0.13410000       0.02560000      -0.05000000
C        0.87101717      -1.34029145      -1.45477106      -0.15000000
C        2.18216117      -1.52830437      -1.83725016      -0.30000000
C       -2.54790000       0.89340000      -0.48720000      -0.30000000
C       -2.15270000      -1.03900000       0.48480000       0.14000000
C        1.49641745       2.00005220       0.73379176       0.47000000
H        0.05293670      -1.97923802      -1.75398399       0.15000000
H        3.93242926      -0.41012076      -1.40174533       0.27000000
H        2.64530119      -2.28550462      -2.45415292       0.15000000
H       -2.57940000       1.86810000      -0.95420000       0.15000000
H       -1.72360000      -1.89970000       0.97690000       0.15000000
H        1.74147542       2.89071007       1.30239838       0.15000000
H       -4.62960000       0.40350000      -0.57060000       0.27000000
