21
Properties=species:S:1:pos:R:3:initial_charges:R:1 pbc="F F F"
N        1.95573123       2.66950097       1.89554785       0.03000000
N        0.68958451       0.02191403      -0.88122625      -0.62000000
N        2.56409199       1.29357106       0.01127805      -0.57000000
N       -3.68270000       0.15740000      -0.31090000       0.30000000
N       -3.47290000      -1.03050000       0.28160000      -0.71000000
C        0.32675383       1.44948370       0.98024605       0.00000000
C       -0.15510000       0.53860000       0.04110000       0.36000000
C        1.67616546       1.77079585       0.90076296       0.11000000
C       -1.52450000       0.13410000       0.02560000      -0.05000000
C       -0.21108962       2.18821193       2.06506279      -0.15000000
C        0.81473713       2.93056539       2.61034119      -0.30000000
C       -2.54790000       0.89340000      -0.48720000      -0.30000000
C       -2.15270000      -1.03900000       0.48480000       0.14000000
C        1.97918301       0.42597486      -0.83942593       0.47000000
H       -1.22530861       2.18755468       2.43707915       0.15000000
H        2.86312638       3.07667290       2.07537251       0.27000000
H        0.83477600       3.61784652       3.44440533       0.15000000
H       -2.57940000       1.86810000      -0.95420000       0.15000000
H       -1.72360000      -1.89970000       0.97690000       0.15000000
H        2.63001403      -0.00645875      -1.59179452       0.15000000
H       -4.62960000       0.40350000      -0.57060000       0.27000000
