21
Properties=species:S:1:pos:R:3:initial_charges:R:1 pbc="F F F"
N        2.72943941       0.04583773       2.00882508       0.03000000
N        0.29591977       1.35680055      -0.93781320      -0.62000000
N        2.53877391       1.37936862       0.00904994      -0.57000000
N       -3.68270000       0.15740000      -0.31090000       0.30000000
N       -3.47290000      -1.03050000       0.28160000      -0.71000000
C        0.72133615       0.11145597       1.03774195       0.00000000
C       -0.15510000       0.53860000       0.04110000       0.36000000
C        2.03082974       0.56810582       0.95307632       0.11000000
C       -1.52450000       0.13410000       0.02560000      -0.05000000
C        0.64445003      -0.71290883       2.18940751      -0.15000000
C        1.89581778      -0.73536647       2.76760481      -0.30000000
C       -2.54790000       0.89340000      -0.48720000      -0.30000000
C       -2.15270000      -1.03900000       0.48480000       0.14000000
C        1.59714603       1.72140643      -0.89366044       0.47000000
H       -0.21067119      -1.25249638       2.56973594       0.15000000
H        3.70841360       0.21029976       2.19870302       0.27000000
H        2.26735377      -1.23984118       3.64844882       0.15000000
H       -2.57940000       1.86810000      -0.95420000       0.15000000
H       -1.72360000      -1.89970000       0.97690000       0.15000000
H        1.92703076       2.37727774      -1.69218862       0.15000000
H       -4.62960000       0.40350000      -0.57060000       0.27000000
