21
Properties=species:S:1:pos:R:3:initial_charges:R:1 pbc="F F F"
N        1.86068754       3.00430868       1.55510315       0.03000000
N        0.73797839      -0.14855137      -0.70815029      -0.62000000
N        2.56725202       1.28245389       0.02221656      -0.57000000
N       -3.68270000       0.15740000      -0.31090000       0.30000000
N       -3.47290000      -1.03050000       0.28160000      -0.71000000
C        0.27827338       1.62026170       0.80666058       0.00000000
C       -0.15510000       0.53860000       0.04110000       0.36000000
C        1.63261096       1.92422789       0.74465176       0.11000000
C       -1.52450000       0.13410000       0.02560000      -0.05000000
C       -0.31621646       2.55853027       1.68873555      -0.15000000
C        0.68190098       3.39849351       2.13478604      -0.30000000
C       -2.54790000       0.89340000      -0.48720000      -0.30000000
C       -2.15270000      -1.03900000       0.48480000       0.14000000
C        2.02617046       0.26047026      -0.67155513       0.47000000
H       -1.35048502       2.62835328       1.99279157       0.15000000
H        2.75927540       3.44250160       1.70349005       0.27000000
H        0.65860327       4.23838901       2.81482476       0.15000000
H       -2.57940000       1.86810000      -0.95420000       0.15000000
H       -1.72360000      -1.89970000       0.97690000       0.15000000
H        2.71645510      -0.31093730      -1.28281518       0.15000000
H       -4.62960000       0.40350000      -0.57060000       0.27000000
