21
Properties=species:S:1:pos:R:3:initial_charges:R:1 pbc="F F F"
N        2.01057045       2.47844067       2.03664853       0.03000000
N        0.66166774       0.11917179      -0.95293846      -0.62000000
N        2.56227714       1.29988767       0.00677386      -0.57000000
N       -3.68270000       0.15740000      -0.31090000       0.30000000
N       -3.47290000      -1.03050000       0.28160000      -0.71000000
C        0.35472498       1.35203317       1.05218481       0.00000000
C       -0.15510000       0.53860000       0.04110000       0.36000000
C        1.70129818       1.68323160       0.96547250       0.11000000
C       -1.52450000       0.13410000       0.02560000      -0.05000000
C       -0.15043775       1.97690422       2.22101719      -0.15000000
C        0.89137640       2.66355789       2.80741956      -0.30000000
C       -2.54790000       0.89340000      -0.48720000      -0.30000000
C       -2.15270000      -1.03900000       0.48480000       0.14000000
C        1.95208145       0.52038961      -0.90896789       0.47000000
H       -1.15317404       1.93630538       2.62090270       0.15000000
H        2.92304488       2.86791818       2.22949440       0.27000000
H        0.93639325       3.26383561       3.70522802       0.15000000
H       -2.57940000       1.86810000      -0.95420000       0.15000000
H       -1.72360000      -1.89970000       0.97690000       0.15000000
H        2.58015290       0.16724702      -1.71980383       0.15000000
H       -4.62960000       0.40350000      -0.57060000       0.27000000
