21
Properties=species:S:1:pos:R:3:initial_charges:R:1 pbc="F F F"
N        1.72831007       3.51617646      -0.10765885       0.03000000
N        0.80551058      -0.40958462       0.13761566      -0.62000000
N        2.57183503       1.26486715       0.07627232      -0.57000000
N       -3.68270000       0.15740000      -0.31090000       0.30000000
N       -3.47290000      -1.03050000       0.28160000      -0.71000000
C        0.21071581       1.88146359      -0.04126322       0.00000000
C       -0.15510000       0.53860000       0.04110000       0.36000000
C        1.57199558       2.15864637      -0.01764371       0.11000000
C       -1.52450000       0.13410000       0.02560000      -0.05000000
C       -0.46275004       3.12505280      -0.14966978      -0.15000000
C        0.49676115       4.11428666      -0.18830079      -0.30000000
C       -2.54790000       0.89340000      -0.48720000      -0.30000000
C       -2.15270000      -1.03900000       0.48480000       0.14000000
C        2.09182363       0.00676179       0.14906581       0.47000000
H       -1.52678460       3.30861007      -0.18393261       0.15000000
H        2.61457868       4.00196581      -0.11299880       0.27000000
H        0.41252863       5.18937463      -0.26253440       0.15000000
H       -2.57940000       1.86810000      -0.95420000       0.15000000
H       -1.72360000      -1.89970000       0.97690000       0.15000000
H        2.83716147      -0.77744609       0.22734645       0.15000000
H       -4.62960000       0.40350000      -0.57060000       0.27000000
