21
Properties=species:S:1:pos:R:3:initial_charges:R:1 pbc="F F F"
N        2.83006656      -0.15254389      -1.70430109       0.03000000
N        0.24512461       1.45637032       0.95140760      -0.62000000
N        2.53605094       1.38393255       0.13051594      -0.57000000
N       -3.68270000       0.15740000      -0.31090000       0.30000000
N       -3.47290000      -1.03050000       0.28160000      -0.71000000
C        0.77254918       0.01064107      -0.85590273       0.00000000
C       -0.15510000       0.53860000       0.04110000       0.36000000
C        2.07710613       0.47666330      -0.74901381       0.11000000
C       -1.52450000       0.13410000       0.02560000      -0.05000000
C        0.75536806      -0.93108165      -1.91641462      -0.15000000
C        2.03602992      -1.01123566      -2.42061523      -0.30000000
C       -2.54790000       0.89340000      -0.48720000      -0.30000000
C       -2.15270000      -1.03900000       0.48480000       0.14000000
C        1.54811367       1.81714735       0.93974017       0.47000000
H       -0.08483474      -1.49193162      -2.29922439       0.15000000
H        3.81818584      -0.00587900      -1.85792908       0.27000000
H        2.45147656      -1.59973137      -3.22652887       0.15000000
H       -2.57940000       1.86810000      -0.95420000       0.15000000
H       -1.72360000      -1.89970000       0.97690000       0.15000000
H        1.83657639       2.55422893       1.68145328       0.15000000
H       -4.62960000       0.40350000      -0.57060000       0.27000000
