21
Properties=species:S:1:pos:R:3:initial_charges:R:1 pbc="F F F"
N        2.56095523       0.60548328       2.28918693       0.03000000
N        0.38161189       1.07217164      -1.08067702      -0.62000000
N        2.54424059       1.36122479      -0.00042744      -0.57000000
N       -3.68270000       0.15740000      -0.31090000       0.30000000
N       -3.47290000      -1.03050000       0.28160000      -0.71000000
C        0.63541980       0.39683738       1.18077949       0.00000000
C       -0.15510000       0.53860000       0.04110000       0.36000000
C        1.95358514       0.82468919       1.08151346       0.11000000
C       -1.52450000       0.13410000       0.02560000      -0.05000000
C        0.45817488      -0.09417688       2.49960912      -0.15000000
C        1.66043161       0.04649412       3.15955467      -0.30000000
C       -2.54790000       0.89340000      -0.48720000      -0.30000000
C       -2.15270000      -1.03900000       0.48480000       0.14000000
C        1.68028557       1.44526272      -1.03244405       0.47000000
H       -0.43111937      -0.52040140       2.94065918       0.15000000
H        3.52435568       0.82167162       2.50508976       0.27000000
H        1.95557256      -0.20426917       4.16872735       0.15000000
H       -2.57940000       1.86810000      -0.95420000       0.15000000
H       -1.72360000      -1.89970000       0.97690000       0.15000000
H        2.08003401       1.86907935      -1.94744077       0.15000000
H       -4.62960000       0.40350000      -0.57060000       0.27000000
