21
Properties=species:S:1:pos:R:3:initial_charges:R:1 pbc="F F F"
N        1.99180513       2.54368233       1.99193764       0.03000000
N        0.67122014       0.08596230      -0.93021672      -0.62000000
N        2.56289761       1.29773252       0.00819847      -0.57000000
N       -3.68270000       0.15740000      -0.31090000       0.30000000
N       -3.47290000      -1.03050000       0.28160000      -0.71000000
C        0.34515369       1.38530942       1.02938990       0.00000000
C       -0.15510000       0.53860000       0.04110000       0.36000000
C        1.69269792       1.71313277       0.94496715       0.11000000
C       -1.52450000       0.13410000       0.02560000      -0.05000000
C       -0.17119175       2.04905868       2.17160120      -0.15000000
C        0.86515174       2.75473212       2.74497270      -0.30000000
C       -2.54790000       0.89340000      -0.48720000      -0.30000000
C       -2.15270000      -1.03900000       0.48480000       0.14000000
C        1.96135465       0.48815172      -0.88693500       0.47000000
H       -1.17785175       2.02208058       2.56268250       0.15000000
H        2.90254165       2.93920146       2.18065821       0.27000000
H        0.90162316       3.38471335       3.62259072       0.15000000
H       -2.57940000       1.86810000      -0.95420000       0.15000000
H       -1.72360000      -1.89970000       0.97690000       0.15000000
H        2.59721384       0.10793451      -1.67924574       0.15000000
H       -4.62960000       0.40350000      -0.57060000       0.27000000
