21
Properties=species:S:1:pos:R:3:initial_charges:R:1 pbc="F F F"
N        2.13188609       2.05945072       2.25289384       0.03000000
N        0.59992051       0.33242119      -1.06279146      -0.62000000
N        2.55827698       1.31369165      -0.00005819      -0.57000000
N       -3.68270000       0.15740000      -0.31090000       0.30000000
N       -3.47290000      -1.03050000       0.28160000      -0.71000000
C        0.41660019       1.13833577       1.16242217       0.00000000
C       -0.15510000       0.53860000       0.04110000       0.36000000
C        1.75690076       1.49119300       1.06466235       0.11000000
C       -1.52450000       0.13410000       0.02560000      -0.05000000
C       -0.01627239       1.51354201       2.45998295      -0.15000000
C        1.06090816       2.07805091       3.10940536      -0.30000000
C       -2.54790000       0.89340000      -0.48720000      -0.30000000
C       -2.15270000      -1.03900000       0.48480000       0.14000000
C        1.89214409       0.72738321      -1.01546369       0.47000000
H       -0.99375512       1.38584028       2.90186137       0.15000000
H        3.05559269       2.41013876       2.46567506       0.27000000
H        1.16113502       2.48768506       4.10468138       0.15000000
H       -2.57940000       1.86810000      -0.95420000       0.15000000
H       -1.72360000      -1.89970000       0.97690000       0.15000000
H        2.46987488       0.54809662      -1.91586460       0.15000000
H       -4.62960000       0.40350000      -0.57060000       0.27000000
