21
Properties=species:S:1:pos:R:3:initial_charges:R:1 pbc="F F F"
N        2.71908961       0.23369075      -1.97914471       0.03000000
N        0.30161801       1.25976440       1.09108695      -0.62000000
N        2.53972197       1.37116870       0.13928154      -0.57000000
N       -3.68270000       0.15740000      -0.31090000       0.30000000
N       -3.47290000      -1.03050000       0.28160000      -0.71000000
C        0.71594488       0.20763952      -0.99602753       0.00000000
C       -0.15510000       0.53860000       0.04110000       0.36000000
C        2.02624517       0.65367870      -0.87506066       0.11000000
C       -1.52450000       0.13410000       0.02560000      -0.05000000
C        0.63262919      -0.50391953      -2.22018625      -0.15000000
C        1.88093780      -0.47147496      -2.80448982      -0.30000000
C       -2.54790000       0.89340000      -0.48720000      -0.30000000
C       -2.15270000      -1.03900000       0.48480000       0.14000000
C        1.60295662       1.62629102       1.07518871       0.47000000
H       -0.23079433      -0.98408069      -2.65720094       0.15000000
H        3.69693054       0.41612393      -2.15813385       0.27000000
H        2.24584222      -0.88410745      -3.73454309       0.15000000
H       -2.57940000       1.86810000      -0.95420000       0.15000000
H       -1.72360000      -1.89970000       0.97690000       0.15000000
H        1.93747650       2.20308623       1.93078329       0.15000000
H       -4.62960000       0.40350000      -0.57060000       0.27000000
