21
Properties=species:S:1:pos:R:3:initial_charges:R:1 pbc="F F F"
N        2.61520386       0.59155733      -2.14016942       0.03000000
N        0.35449116       1.07763307       1.17286951      -0.62000000
N        2.54314372       1.35939071       0.14434318      -0.57000000
N       -3.68270000       0.15740000      -0.31090000       0.30000000
N       -3.47290000      -1.03050000       0.28160000      -0.71000000
C        0.66296020       0.39015989      -1.07810980       0.00000000
C       -0.15510000       0.53860000       0.04110000       0.36000000
C        1.97863026       0.81770540      -0.94892806       0.11000000
C       -1.52450000       0.13410000       0.02560000      -0.05000000
C        0.51774216      -0.10816140      -2.39811357      -0.15000000
C        1.73576586       0.02860828      -3.02934256      -0.30000000
C       -2.54790000       0.89340000      -0.48720000      -0.30000000
C       -2.15270000      -1.03900000       0.48480000       0.14000000
C        1.65427831       1.44950825       1.15446003       0.47000000
H       -0.36726923      -0.51405043      -2.86613672       0.15000000
H        3.58342744       0.80711773      -2.33399578       0.27000000
H        2.05340421      -0.22123097      -4.03189237       0.15000000
H       -2.57940000       1.86810000      -0.95420000       0.15000000
H       -1.72360000      -1.89970000       0.97690000       0.15000000
H        2.03190414       1.87781692       2.07673373       0.15000000
H       -4.62960000       0.40350000      -0.57060000       0.27000000
