21
Properties=species:S:1:pos:R:3:initial_charges:R:1 pbc="F F F"
N        2.09980722       2.33076137      -1.99332260       0.03000000
N        0.61670221       0.19282952       1.09746459      -0.62000000
N        2.55997508       1.30263094       0.13856669      -0.57000000
N       -3.68270000       0.15740000      -0.31090000       0.30000000
N       -3.47290000      -1.03050000       0.28160000      -0.71000000
C        0.40012011       1.27710582      -1.00303951       0.00000000
C       -0.15510000       0.53860000       0.04110000       0.36000000
C        1.74236590       1.61498845      -0.88186873       0.11000000
C       -1.52450000       0.13410000       0.02560000      -0.05000000
C       -0.05214457       1.81489603      -2.23513557      -0.15000000
C        1.01563998       2.45864455      -2.82349065      -0.30000000
C       -2.54790000       0.89340000      -0.48720000      -0.30000000
C       -2.15270000      -1.03900000       0.48480000       0.14000000
C        1.90872873       0.59090947       1.08083506       0.47000000
H       -1.04279277       1.76509720      -2.66312267       0.15000000
H        3.02035907       2.70717902      -2.17328341       0.27000000
H        1.09924025       2.99844690      -3.75625231       0.15000000
H       -2.57940000       1.86810000      -0.95420000       0.15000000
H       -1.72360000      -1.89970000       0.97690000       0.15000000
H        2.50013010       0.29785441       1.94164950       0.15000000
H       -4.62960000       0.40350000      -0.57060000       0.27000000
