21
Properties=species:S:1:pos:R:3:initial_charges:R:1 pbc="F F F"
N        2.99839808      -0.75463397      -0.86351043       0.03000000
N        0.15938860       1.76300478       0.52387518      -0.62000000
N        2.53041786       1.40404287       0.10337501      -0.57000000
N       -3.68270000       0.15740000      -0.31090000       0.30000000
N       -3.47290000      -1.03050000       0.28160000      -0.71000000
C        0.85841946      -0.29649365      -0.42717814       0.00000000
C       -0.15510000       0.53860000       0.04110000       0.36000000
C        2.15423582       0.20077495      -0.36350165       0.11000000
C       -1.52450000       0.13410000       0.02560000      -0.05000000
C        0.94158027      -1.59710403      -0.98692743      -0.15000000
C        2.27132049      -1.85279943      -1.24605778      -0.30000000
C       -2.54790000       0.89340000      -0.48720000      -0.30000000
C       -2.15270000      -1.03900000       0.48480000       0.14000000
C        1.46485261       2.11491264       0.52500733       0.47000000
H        0.13725553      -2.28589657      -1.20061715       0.15000000
H        4.00212640      -0.66378870      -0.93946067       0.27000000
H        2.76363551      -2.71611807      -1.67117746       0.15000000
H       -2.57940000       1.86810000      -0.95420000       0.15000000
H       -1.72360000      -1.89970000       0.97690000       0.15000000
H        1.68341878       3.10197960       0.91815615       0.15000000
H       -4.62960000       0.40350000      -0.57060000       0.27000000
