21
Properties=species:S:1:pos:R:3:initial_charges:R:1 pbc="F F F"
N        2.69902919       0.30303557      -2.01651517       0.03000000
N        0.31182853       1.22447004       1.11007243      -0.62000000
N        2.54038367       1.36888326       0.14046394      -0.57000000
N       -3.68270000       0.15740000      -0.31090000       0.30000000
N       -3.47290000      -1.03050000       0.28160000      -0.71000000
C        0.70571332       0.24300759      -1.01507853       0.00000000
C       -0.15510000       0.53860000       0.04110000       0.36000000
C        2.01705095       0.68546178      -0.89220171       0.11000000
C       -1.52450000       0.13410000       0.02560000      -0.05000000
C        0.61044382      -0.42723039      -2.26148421      -0.15000000
C        1.85290433      -0.37457024      -2.85667872      -0.30000000
C       -2.54790000       0.89340000      -0.48720000      -0.30000000
C       -2.15270000      -1.03900000       0.48480000       0.14000000
C        1.61286798       1.59203166       1.09359477       0.47000000
H       -0.25715805      -0.89296734      -2.70577335       0.15000000
H        3.67501273       0.49188882      -2.19894994       0.27000000
H        2.20867860      -0.75564773      -3.80358131       0.15000000
H       -2.57940000       1.86810000      -0.95420000       0.15000000
H       -1.72360000      -1.89970000       0.97690000       0.15000000
H        1.95571219       2.14005243       1.96466850       0.15000000
H       -4.62960000       0.40350000      -0.57060000       0.27000000
