21
Properties=species:S:1:pos:R:3:initial_charges:R:1 pbc="F F F"
N        3.03533607      -0.89746315      -0.39954113       0.03000000
N        0.14054474       1.83584227       0.28787662      -0.62000000
N        2.52913904       1.40895019       0.08829154      -0.57000000
N       -3.68270000       0.15740000      -0.31090000       0.30000000
N       -3.47290000      -1.03050000       0.28160000      -0.71000000
C        0.87727041      -0.36937820      -0.19057747       0.00000000
C       -0.15510000       0.53860000       0.04110000       0.36000000
C        2.17114965       0.13536392      -0.15079430       0.11000000
C       -1.52450000       0.13410000       0.02560000      -0.05000000
C        0.98246831      -1.75518382      -0.47394744      -0.15000000
C        2.32298104      -2.05253099      -0.59783455      -0.30000000
C       -2.54790000       0.89340000      -0.48720000      -0.30000000
C       -2.15270000      -1.03900000       0.48480000       0.14000000
C        1.44653306       2.18570626       0.29602512       0.47000000
H        0.18644933      -2.47571222      -0.59323427       0.15000000
H        4.04250190      -0.81989896      -0.43259616       0.27000000
H        2.83229902      -2.98147663      -0.81248563       0.15000000
H       -2.57940000       1.86810000      -0.95420000       0.15000000
H       -1.72360000      -1.89970000       0.97690000       0.15000000
H        1.64973744       3.23215202       0.49676774       0.15000000
H       -4.62960000       0.40350000      -0.57060000       0.27000000
