21
Properties=species:S:1:pos:R:3:initial_charges:R:1 pbc="F F F"
N        1.82152440       3.14438787       1.35948912       0.03000000
N        0.75792529      -0.21989137      -0.60868280      -0.62000000
N        2.56856258       1.27777513       0.02853103      -0.57000000
N       -3.68270000       0.15740000      -0.31090000       0.30000000
N       -3.47290000      -1.03050000       0.28160000      -0.71000000
C        0.25829525       1.69171809       0.70691572       0.00000000
C       -0.15510000       0.53860000       0.04110000       0.36000000
C        1.61466636       1.98841466       0.65496048       0.11000000
C       -1.52450000       0.13410000       0.02560000      -0.05000000
C       -0.35953964       2.71348362       1.47248584      -0.15000000
C        0.62715949       3.59428741       1.86151954      -0.30000000
C       -2.54790000       0.89340000      -0.48720000      -0.30000000
C       -2.15270000      -1.03900000       0.48480000       0.14000000
C        2.04554155       0.19119372      -0.57506552       0.47000000
H       -1.40215540       2.81307308       1.73719526       0.15000000
H        2.71648074       3.59556749       1.48980391       0.27000000
H        0.58597797       4.49812181       2.45296470       0.15000000
H       -2.57940000       1.86810000      -0.95420000       0.15000000
H       -1.72360000      -1.89970000       0.97690000       0.15000000
H        2.75208796      -0.43837416      -1.10523040       0.15000000
H       -4.62960000       0.40350000      -0.57060000       0.27000000
