21
Properties=species:S:1:pos:R:3:initial_charges:R:1 pbc="F F F"
N        2.35574639       1.29601170       2.39849309       0.03000000
N        0.48600757       0.72089055      -1.13656433      -0.62000000
N        2.55093435       1.33871542      -0.00438782      -0.57000000
N       -3.68270000       0.15740000      -0.31090000       0.30000000
N       -3.47290000      -1.03050000       0.28160000      -0.71000000
C        0.53076958       0.74898287       1.23659550       0.00000000
C       -0.15510000       0.53860000       0.04110000       0.36000000
C        1.85951277       1.14124700       1.13151836       0.11000000
C       -1.52450000       0.13410000       0.02560000      -0.05000000
C        0.23127522       0.66933186       2.62071298      -0.15000000
C        1.37371370       1.01129041       3.31254849      -0.30000000
C       -2.54790000       0.89340000      -0.48720000      -0.30000000
C       -2.15270000      -1.03900000       0.48480000       0.14000000
C        1.78158788       1.10439749      -1.08685724       0.47000000
H       -0.70000034       0.38422128       3.08812559       0.15000000
H        3.30016824       1.57605872       2.62461891       0.27000000
H        1.57569533       1.07396062       4.37259366       0.15000000
H       -2.57940000       1.86810000      -0.95420000       0.15000000
H       -1.72360000      -1.89970000       0.97690000       0.15000000
H        2.26644823       1.24182079      -2.04741106       0.15000000
H       -4.62960000       0.40350000      -0.57060000       0.27000000
