21
Properties=species:S:1:pos:R:3:initial_charges:R:1 pbc="F F F"
N        2.89349342      -0.37597590      -1.47710727       0.03000000
N        0.21282923       1.57012944       0.83590635      -0.62000000
N        2.53394211       1.39135153       0.12321620      -0.57000000
N       -3.68270000       0.15740000      -0.31090000       0.30000000
N       -3.47290000      -1.03050000       0.28160000      -0.71000000
C        0.80490233      -0.10332665      -0.74006146       0.00000000
C       -0.15510000       0.53860000       0.04110000       0.36000000
C        2.10617198       0.37427130      -0.64483389       0.11000000
C       -1.52450000       0.13410000       0.02560000      -0.05000000
C        0.82552386      -1.17821149      -1.66527478      -0.15000000
C        2.12467736      -1.32350482      -2.10325622      -0.30000000
C       -2.54790000       0.89340000      -0.48720000      -0.30000000
C       -2.15270000      -1.03900000       0.48480000       0.14000000
C        1.51675687       1.92759590       0.82771255       0.47000000
H       -0.00129898      -1.78609604      -2.00273161       0.15000000
H        3.88749020      -0.25001270      -1.60975544       0.27000000
H        2.56904442      -2.01384686      -2.80638187       0.15000000
H       -2.57940000       1.86810000      -0.95420000       0.15000000
H       -1.72360000      -1.89970000       0.97690000       0.15000000
H        1.77889044       2.75742096       1.47525769       0.15000000
H       -4.62960000       0.40350000      -0.57060000       0.27000000
