21
Properties=species:S:1:pos:R:3:initial_charges:R:1 pbc="F F F"
N        2.87852082      -0.32299577      -1.53691196       0.03000000
N        0.22045358       1.54315273       0.86631230      -0.62000000
N        2.53444086       1.38958928       0.12514100      -0.57000000
N       -3.68270000       0.15740000      -0.31090000       0.30000000
N       -3.47290000      -1.03050000       0.28160000      -0.71000000
C        0.79726484      -0.07630209      -0.77055520       0.00000000
C       -0.15510000       0.53860000       0.04110000       0.36000000
C        2.09931092       0.39854966      -0.67225652       0.11000000
C       -1.52450000       0.13410000       0.02560000      -0.05000000
C        0.80896223      -1.11961024      -1.73138486      -0.15000000
C        2.10375051      -1.24945754      -2.18679753      -0.30000000
C       -2.54790000       0.89340000      -0.48720000      -0.30000000
C       -2.15270000      -1.03900000       0.48480000       0.14000000
C        1.52416007       1.90140285       0.85720557       0.47000000
H       -0.02102866      -1.71631090      -2.08081324       0.15000000
H        3.87112987      -0.19212290      -1.67508364       0.27000000
H        2.54128760      -1.91564010      -2.91699064       0.15000000
H       -2.57940000       1.86810000      -0.95420000       0.15000000
H       -1.72360000      -1.89970000       0.97690000       0.15000000
H        1.79250946       2.70923488       1.52954058       0.15000000
H       -4.62960000       0.40350000      -0.57060000       0.27000000
