21
Properties=species:S:1:pos:R:3:initial_charges:R:1 pbc="F F F"
N        2.20757793       1.97189750      -2.14950164       0.03000000
N        0.56188684       0.37535196       1.17706742      -0.62000000
N        2.55647478       1.31427758       0.14387265      -0.57000000
N       -3.68270000       0.15740000      -0.31090000       0.30000000
N       -3.47290000      -1.03050000       0.28160000      -0.71000000
C        0.45507706       1.09410724      -1.08272525       0.00000000
C       -0.15510000       0.53860000       0.04110000       0.36000000
C        1.79177439       1.45046161      -0.95340928       0.11000000
C       -1.52450000       0.13410000       0.02560000      -0.05000000
C        0.06700831       1.41813640      -2.40795356      -0.15000000
C        1.16620691       1.95728043      -3.04184935      -0.30000000
C       -2.54790000       0.89340000      -0.48720000      -0.30000000
C       -2.15270000      -1.03900000       0.48480000       0.14000000
C        1.85554455       0.76799627       1.15817660       0.47000000
H       -0.90174531       1.29552176      -2.87003454       0.15000000
H        3.13809252       2.31514296      -2.34396757       0.27000000
H        1.29868438       2.33435572      -4.04618188       0.15000000
H       -2.57940000       1.86810000      -0.95420000       0.15000000
H       -1.72360000      -1.89970000       0.97690000       0.15000000
H        2.40225569       0.62374946       2.08388613       0.15000000
H       -4.62960000       0.40350000      -0.57060000       0.27000000
