21
Properties=species:S:1:pos:R:3:initial_charges:R:1 pbc="F F F"
N        2.43578745       1.20342770      -2.25686227       0.03000000
N        0.44578850       0.76628811       1.23199595      -0.62000000
N        2.54902859       1.33933501       0.14781323      -0.57000000
N       -3.68270000       0.15740000      -0.31090000       0.30000000
N       -3.47290000      -1.03050000       0.28160000      -0.71000000
C        0.57145732       0.70221298      -1.13755719       0.00000000
C       -0.15510000       0.53860000       0.04110000       0.36000000
C        1.89639023       1.09817520      -1.00251087       0.11000000
C       -1.52450000       0.13410000       0.02560000      -0.05000000
C        0.31934119       0.56844429      -2.52693322      -0.15000000
C        1.48506287       0.88358050      -3.19215486      -0.30000000
C       -2.54790000       0.89340000      -0.48720000      -0.30000000
C       -2.15270000      -1.03900000       0.48480000       0.14000000
C        1.74288535       1.14734415       1.21167954       0.47000000
H       -0.60270369       0.28871309      -3.01542115       0.15000000
H        3.38740847       1.47560449      -2.46138386       0.27000000
H        1.72114823       0.91182103      -4.24661495       0.15000000
H       -2.57940000       1.86810000      -0.95420000       0.15000000
H       -1.72360000      -1.89970000       0.97690000       0.15000000
H        2.19494367       1.32182062       2.18216374       0.15000000
H       -4.62960000       0.40350000      -0.57060000       0.27000000
