19
Properties=species:S:1:pos:R:3:initial_charges:R:1 pbc="F F F"
O        3.28940000      -0.98510000       0.00070000      -0.28000000
O       -3.06743845      -1.58427613      -0.93062827      -0.57000000
N       -0.96482485      -0.74541651      -0.47097387      -0.54000000
C       -0.15590000       0.27550000      -0.00850000       0.16000000
C        1.30410000       0.06880000      -0.00380000      -0.05000000
C       -0.71445076       1.41532118       0.43423597      -0.15000000
C        2.32750000       1.04640000       0.00560000      -0.15000000
C        1.94060000      -1.15050000      -0.00650000      -0.01000000
C       -2.34825146      -0.67802148      -0.51766697       0.62000000
C       -2.14861597       1.56963185       0.41862399      -0.15000000
C       -2.94956451       0.59374724      -0.02609921      -0.14000000
C        3.51650000       0.35470000       0.00800000      -0.01000000
H       -0.52928554      -1.60154507      -0.79911306       0.37000000
H       -0.13925407       2.25206579       0.81424871       0.15000000
H        2.23260000       2.12300000       0.01050000       0.15000000
H        1.60980000      -2.17950000      -0.01280000       0.15000000
H       -2.56312255       2.50398463       0.78070675       0.15000000
H       -4.02764318       0.69706120      -0.04226436       0.15000000
H        4.55480000       0.65270000       0.01440000       0.15000000
