19
Properties=species:S:1:pos:R:3:initial_charges:R:1 pbc="F F F"
O        3.28940000      -0.98510000       0.00070000      -0.28000000
O       -3.03520742      -1.30347111       1.40662648      -0.57000000
N       -0.94916396      -0.60819833       0.69883413      -0.54000000
C       -0.15590000       0.27550000      -0.00850000       0.16000000
C        1.30410000       0.06880000      -0.00380000      -0.05000000
C       -0.72728594       1.29965251      -0.66562721      -0.15000000
C        2.32750000       1.04640000       0.00560000      -0.15000000
C        1.94060000      -1.15050000      -0.00650000      -0.01000000
C       -2.32964034      -0.51705990       0.77989132       0.62000000
C       -2.15972682       1.46719092      -0.63514178      -0.15000000
C       -2.94576803       0.62213084       0.04284108      -0.14000000
C        3.51650000       0.35470000       0.00800000      -0.01000000
H       -0.50360201      -1.37483855       1.19286171       0.37000000
H       -0.16399696       2.03071157      -1.23453900       0.15000000
H        2.23260000       2.12300000       0.01050000       0.15000000
H        1.60980000      -2.17950000      -0.01280000       0.15000000
H       -2.58525714       2.30307140      -1.17934994       0.15000000
H       -4.02229041       0.73751487       0.07406241       0.15000000
H        4.55480000       0.65270000       0.01440000       0.15000000
