19
Properties=species:S:1:pos:R:3:initial_charges:R:1 pbc="F F F"
O        3.28940000      -0.98510000       0.00070000      -0.28000000
O       -2.92830348      -0.62761084      -2.07835837      -0.57000000
N       -0.89498733      -0.26515402      -1.04385268      -0.54000000
C       -0.15590000       0.27550000      -0.00850000       0.16000000
C        1.30410000       0.06880000      -0.00380000      -0.05000000
C       -0.78091405       0.95797047       0.96657842      -0.15000000
C        2.32750000       1.04640000       0.00560000      -0.15000000
C        1.94060000      -1.15050000      -0.00650000      -0.01000000
C       -2.27131324      -0.14912047      -1.15723121       0.62000000
C       -2.21279693       1.12780507       0.92470961      -0.15000000
C       -2.94666776       0.61322311      -0.06941667      -0.14000000
C        3.51650000       0.35470000       0.00800000      -0.01000000
H       -0.40994717      -0.78072018      -1.77135080       0.37000000
H       -0.26270585       1.40269032       1.80865144       0.15000000
H        2.23260000       2.12300000       0.01050000       0.15000000
H        1.60980000      -2.17950000      -0.01280000       0.15000000
H       -2.68187965       1.68667407       1.72693252       0.15000000
H       -4.02230853       0.73315949      -0.11185369       0.15000000
H        4.55480000       0.65270000       0.01440000       0.15000000
