19
Properties=species:S:1:pos:R:3:initial_charges:R:1 pbc="F F F"
O        3.28940000      -0.98510000       0.00070000      -0.28000000
O       -2.41680092       3.02461771      -0.35029345      -0.57000000
N       -0.63942490       1.55975820      -0.17401907      -0.54000000
C       -0.15590000       0.27550000      -0.00850000       0.16000000
C        1.30410000       0.06880000      -0.00380000      -0.05000000
C       -1.01940161      -0.74560254       0.12898093      -0.15000000
C        2.32750000       1.04640000       0.00560000      -0.15000000
C        1.94060000      -1.15050000      -0.00650000      -0.01000000
C       -1.98666418       1.88310649      -0.20538320       0.62000000
C       -2.44016226      -0.49669155       0.10980142      -0.15000000
C       -2.92887760       0.73936351      -0.04822785      -0.14000000
C        3.51650000       0.35470000       0.00800000      -0.01000000
H        0.02429544       2.32041246      -0.27987910       0.37000000
H       -0.70774439      -1.77606349       0.25713111       0.15000000
H        2.23260000       2.12300000       0.01050000       0.15000000
H        1.60980000      -2.17950000      -0.01280000       0.15000000
H       -3.10618453      -1.34446792       0.22652462       0.15000000
H       -3.99329052       0.93918822      -0.06507775       0.15000000
H        4.55480000       0.65270000       0.01440000       0.15000000
