19
Properties=species:S:1:pos:R:3:initial_charges:R:1 pbc="F F F"
O        3.28940000      -0.98510000       0.00070000      -0.28000000
O       -3.06928055      -1.55414878       0.96656055      -0.57000000
N       -0.96612338      -0.73300378       0.47829587      -0.54000000
C       -0.15590000       0.27550000      -0.00850000       0.16000000
C        1.30410000       0.06880000      -0.00380000      -0.05000000
C       -0.71171910       1.41434758      -0.45713986      -0.15000000
C        2.32750000       1.04640000       0.00560000      -0.15000000
C        1.94060000      -1.15050000      -0.00650000      -0.01000000
C       -2.34870028      -0.65723279       0.53601411       0.62000000
C       -2.14505013       1.57541609      -0.43467955      -0.15000000
C       -2.94734325       0.61074817       0.03157104      -0.14000000
C        3.51650000       0.35470000       0.00800000      -0.01000000
H       -0.53228369      -1.58598061       0.81673284       0.37000000
H       -0.13483249       2.24553052      -0.84667705       0.15000000
H        2.23260000       2.12300000       0.01050000       0.15000000
H        1.60980000      -2.17950000      -0.01280000       0.15000000
H       -2.55766366       2.50643292      -0.80736238       0.15000000
H       -4.02473734       0.71978449       0.05441287       0.15000000
H        4.55480000       0.65270000       0.01440000       0.15000000
