19
Properties=species:S:1:pos:R:3:initial_charges:R:1 pbc="F F F"
O        3.28940000      -0.98510000       0.00070000      -0.28000000
O       -2.58787826       1.77511705      -2.15856381      -0.57000000
N       -0.72465598       0.93712618      -1.08054452      -0.54000000
C       -0.15590000       0.27550000      -0.00850000       0.16000000
C        1.30410000       0.06880000      -0.00380000      -0.05000000
C       -0.94084747      -0.17123000       0.98722898      -0.15000000
C        2.32750000       1.04640000       0.00560000      -0.15000000
C        1.94060000      -1.15050000      -0.00650000      -0.01000000
C       -2.08224052       1.18523939      -1.20701808       0.62000000
C       -2.36589315       0.04668095       0.93579933      -0.15000000
C       -2.93630487       0.68589209      -0.09264009      -0.14000000
C        3.51650000       0.35470000       0.00800000      -0.01000000
H       -0.12001443       1.26592733      -1.82661713       0.37000000
H       -0.56071864      -0.70127263       1.85323090       0.15000000
H        2.23260000       2.12300000       0.01050000       0.15000000
H        1.60980000      -2.17950000      -0.01280000       0.15000000
H       -2.96681211      -0.32519765       1.75831830       0.15000000
H       -4.00494168       0.85511262      -0.14332021       0.15000000
H        4.55480000       0.65270000       0.01440000       0.15000000
