19
Properties=species:S:1:pos:R:3:initial_charges:R:1 pbc="F F F"
O        3.28940000      -0.98510000       0.00070000      -0.28000000
O       -2.95798345      -0.83394584      -1.93297453      -0.57000000
N       -0.90986516      -0.36859446      -0.97140752      -0.54000000
C       -0.15590000       0.27550000      -0.00850000       0.16000000
C        1.30410000       0.06880000      -0.00380000      -0.05000000
C       -0.76683409       1.05590293       0.89974954      -0.15000000
C        2.32750000       1.04640000       0.00560000      -0.15000000
C        1.94060000      -1.15050000      -0.00650000      -0.01000000
C       -2.28775564      -0.26341300      -1.07603146       0.62000000
C       -2.19924951       1.22205804       0.86148835      -0.15000000
C       -2.94740509       0.60815658      -0.06319337      -0.14000000
C        3.51650000       0.35470000       0.00800000      -0.01000000
H       -0.43532923      -0.95721345      -1.64865878       0.37000000
H       -0.23651866       1.58481679       1.68359782       0.15000000
H        2.23260000       2.12300000       0.01050000       0.15000000
H        1.60980000      -2.17950000      -0.01280000       0.15000000
H       -2.65675202       1.86146338       1.60833975       0.15000000
H       -4.02360378       0.72423309      -0.10206893       0.15000000
H        4.55480000       0.65270000       0.01440000       0.15000000
