19
Properties=species:S:1:pos:R:3:initial_charges:R:1 pbc="F F F"
O        3.28940000      -0.98510000       0.00070000      -0.28000000
O       -2.60253222       1.76910443       2.12908755      -0.57000000
N       -0.73283923       0.92810395       1.06470139      -0.54000000
C       -0.15590000       0.27550000      -0.00850000       0.16000000
C        1.30410000       0.06880000      -0.00380000      -0.05000000
C       -0.92974771      -0.13862281      -1.02675755      -0.15000000
C        2.32750000       1.04640000       0.00560000      -0.15000000
C        1.94060000      -1.15050000      -0.00650000      -0.01000000
C       -2.08908221       1.19106473       1.17446529       0.62000000
C       -2.35311997       0.09307019      -0.99189862      -0.15000000
C       -2.93160713       0.72205215       0.03833551      -0.14000000
C        3.51650000       0.35470000       0.00800000      -0.01000000
H       -0.13572319       1.23799729       1.82479644       0.37000000
H       -0.54154572      -0.65118169      -1.89967511       0.15000000
H        2.23260000       2.12300000       0.01050000       0.15000000
H        1.60980000      -2.17950000      -0.01280000       0.15000000
H       -2.94569940      -0.25765414      -1.82961982       0.15000000
H       -3.99891358       0.90267863       0.07601448       0.15000000
H        4.55480000       0.65270000       0.01440000       0.15000000
