19
Properties=species:S:1:pos:R:3:initial_charges:R:1 pbc="F F F"
O        3.28940000      -0.98510000       0.00070000      -0.28000000
O       -3.05724704      -1.51580784      -1.08532196      -0.57000000
N       -0.95969534      -0.71094248      -0.54827431      -0.54000000
C       -0.15590000       0.27550000      -0.00850000       0.16000000
C        1.30410000       0.06880000      -0.00380000      -0.05000000
C       -0.71938858       1.38208475       0.50641478      -0.15000000
C        2.32750000       1.04640000       0.00560000      -0.15000000
C        1.94060000      -1.15050000      -0.00650000      -0.01000000
C       -2.34263724      -0.64032324      -0.60373705       0.62000000
C       -2.15341905       1.53727121       0.48746386      -0.15000000
C       -2.94943713       0.59452616      -0.03141478      -0.14000000
C        3.51650000       0.35470000       0.00800000      -0.01000000
H       -0.52049098      -1.54241288      -0.93048164       0.37000000
H       -0.14840130       2.19051767       0.94892151       0.15000000
H        2.23260000       2.12300000       0.01050000       0.15000000
H        1.60980000      -2.17950000      -0.01280000       0.15000000
H       -2.57196717       2.44443216       0.90914056       0.15000000
H       -4.02736412       0.69883469      -0.05095503       0.15000000
H        4.55480000       0.65270000       0.01440000       0.15000000
