19
Properties=species:S:1:pos:R:3:initial_charges:R:1 pbc="F F F"
O        3.28940000      -0.98510000       0.00070000      -0.28000000
O       -2.48893470       2.48728236      -1.57410271      -0.57000000
N       -0.67527044       1.29262730      -0.78710030      -0.54000000
C       -0.15590000       0.27550000      -0.00850000       0.16000000
C        1.30410000       0.06880000      -0.00380000      -0.05000000
C       -0.98673364      -0.50169859       0.70764540      -0.15000000
C        2.32750000       1.04640000       0.00560000      -0.15000000
C        1.94060000      -1.15050000      -0.00650000      -0.01000000
C       -2.02710308       1.58204196      -0.88394632       0.62000000
C       -2.40951296      -0.26756563       0.66561976      -0.15000000
C       -2.93256320       0.71258668      -0.08095104      -0.14000000
C        3.51650000       0.35470000       0.00800000      -0.01000000
H       -0.03620434       1.86931520      -1.32501435       0.37000000
H       -0.64643508      -1.31852524       1.33405865       0.15000000
H        2.23260000       2.12300000       0.01050000       0.15000000
H        1.60980000      -2.17950000      -0.01280000       0.15000000
H       -3.04837173      -0.91264596       1.25863374       0.15000000
H       -3.99893283       0.89805055      -0.12154238       0.15000000
H        4.55480000       0.65270000       0.01440000       0.15000000
