19
Properties=species:S:1:pos:R:3:initial_charges:R:1 pbc="F F F"
O        3.28940000      -0.98510000       0.00070000      -0.28000000
O       -2.72766390       0.89137448       2.39833880      -0.57000000
N       -0.79549636       0.48856771       1.19816096      -0.54000000
C       -0.15590000       0.27550000      -0.00850000       0.16000000
C        1.30410000       0.06880000      -0.00380000      -0.05000000
C       -0.87072433       0.27554720      -1.14701333      -0.15000000
C        2.32750000       1.04640000       0.00560000      -0.15000000
C        1.94060000      -1.15050000      -0.00650000      -0.01000000
C       -2.15850796       0.70412850       1.32592800       0.62000000
C       -2.29649964       0.49045569      -1.10383388      -0.15000000
C       -2.93512839       0.69753967       0.05414609      -0.14000000
C        3.51650000       0.35470000       0.00800000      -0.01000000
H       -0.24247579       0.48906899       2.04933306       0.37000000
H       -0.43164869       0.11991649      -2.12598938       0.15000000
H        2.23260000       2.12300000       0.01050000       0.15000000
H        1.60980000      -2.17950000      -0.01280000       0.15000000
H       -2.84047029       0.48079224      -2.04188361       0.15000000
H       -4.00491799       0.86080763       0.09978028       0.15000000
H        4.55480000       0.65270000       0.01440000       0.15000000
