19
Properties=species:S:1:pos:R:3:initial_charges:R:1 pbc="F F F"
O        3.28940000      -0.98510000       0.00070000      -0.28000000
O       -2.81763087       0.14696202      -2.39278410      -0.57000000
N       -0.83955513       0.12283254      -1.20006214      -0.54000000
C       -0.15590000       0.27550000      -0.00850000       0.16000000
C        1.30410000       0.06880000      -0.00380000      -0.05000000
C       -0.83319229       0.59194308       1.10878481      -0.15000000
C        2.32750000       1.04640000       0.00560000      -0.15000000
C        1.94060000      -1.15050000      -0.00650000      -0.01000000
C       -2.20993280       0.28042334      -1.33356006       0.62000000
C       -2.26298483       0.77634046       1.05802776      -0.15000000
C       -2.94364498       0.63420356      -0.08571475      -0.14000000
C        3.51650000       0.35470000       0.00800000      -0.01000000
H       -0.31547243      -0.11940262      -2.03491865       0.37000000
H       -0.36001716       0.72141395       2.07560695       0.15000000
H        2.23260000       2.12300000       0.01050000       0.15000000
H        1.60980000      -2.17950000      -0.01280000       0.15000000
H       -2.77510699       1.03389519       1.97853371       0.15000000
H       -4.01711859       0.76925179      -0.13675479       0.15000000
H        4.55480000       0.65270000       0.01440000       0.15000000
