19
Properties=species:S:1:pos:R:3:initial_charges:R:1 pbc="F F F"
O        3.28940000      -0.98510000       0.00070000      -0.28000000
O       -2.47746985       2.63462990       1.34463099      -0.57000000
N       -0.67011443       1.36225652       0.67345001      -0.54000000
C       -0.15590000       0.27550000      -0.00850000       0.16000000
C        1.30410000       0.06880000      -0.00380000      -0.05000000
C       -0.98924547      -0.55063867      -0.66440903      -0.15000000
C        2.32750000       1.04640000       0.00560000      -0.15000000
C        1.94060000      -1.15050000      -0.00650000      -0.01000000
C       -2.01985095       1.67012105       0.73687111       0.62000000
C       -2.41045270      -0.30407728      -0.64819632      -0.15000000
C       -2.92870658       0.74182499       0.00689863      -0.14000000
C        3.51650000       0.35470000       0.00800000      -0.01000000
H       -0.02864138       1.97927277       1.16143486       0.37000000
H       -0.65214509      -1.41698375      -1.22227280       0.15000000
H        2.23260000       2.12300000       0.01050000       0.15000000
H        1.60980000      -2.17950000      -0.01280000       0.15000000
H       -3.05193451      -0.99339876      -1.18603620       0.15000000
H       -3.99372756       0.93817315       0.02604060       0.15000000
H        4.55480000       0.65270000       0.01440000       0.15000000
