19
Properties=species:S:1:pos:R:3:initial_charges:R:1 pbc="F F F"
O        3.28940000      -0.98510000       0.00070000      -0.28000000
O       -3.07985788      -1.66653874      -0.69048224      -0.57000000
N       -0.97108603      -0.78691217      -0.35093852      -0.54000000
C       -0.15590000       0.27550000      -0.00850000       0.16000000
C        1.30410000       0.06880000      -0.00380000      -0.05000000
C       -0.70838265       1.45563084       0.32201556      -0.15000000
C        2.32750000       1.04640000       0.00560000      -0.15000000
C        1.94060000      -1.15050000      -0.00650000      -0.01000000
C       -2.35507740      -0.72319875      -0.38410442       0.62000000
C       -2.14268834       1.60906530       0.31150747      -0.15000000
C       -2.94965776       0.59327154      -0.01805509      -0.14000000
C        3.51650000       0.35470000       0.00800000      -0.01000000
H       -0.54004165      -1.67287943      -0.59504648       0.37000000
H       -0.12803062       2.32658159       0.60492681       0.15000000
H        2.23260000       2.12300000       0.01050000       0.15000000
H        1.60980000      -2.17950000      -0.01280000       0.15000000
H       -2.55223772       2.57632661       0.58096916       0.15000000
H       -4.02790158       0.69553654      -0.02904663       0.15000000
H        4.55480000       0.65270000       0.01440000       0.15000000
