19
Properties=species:S:1:pos:R:3:initial_charges:R:1 pbc="F F F"
O        3.28940000      -0.98510000       0.00070000      -0.28000000
O       -2.49190163       2.53580615       1.48155250      -0.57000000
N       -0.67736188       1.31261953       0.74181501      -0.54000000
C       -0.15590000       0.27550000      -0.00850000       0.16000000
C        1.30410000       0.06880000      -0.00380000      -0.05000000
C       -0.98233397      -0.50326669      -0.72802467      -0.15000000
C        2.32750000       1.04640000       0.00560000      -0.15000000
C        1.94060000      -1.15050000      -0.00650000      -0.01000000
C       -2.02782596       1.61552469       0.81313625       0.62000000
C       -2.40376973      -0.25824940      -0.70873021      -0.15000000
C       -2.92898559       0.73996876       0.01193398      -0.14000000
C        3.51650000       0.35470000       0.00800000      -0.01000000
H       -0.04103323       1.89438368       1.27750359       0.37000000
H       -0.63931358      -1.32905110      -1.34106593       0.15000000
H        2.23260000       2.12300000       0.01050000       0.15000000
H        1.60980000      -2.17950000      -0.01280000       0.15000000
H       -3.03957951      -0.90870269      -1.29914632       0.15000000
H       -3.99425263       0.93464919       0.03416815       0.15000000
H        4.55480000       0.65270000       0.01440000       0.15000000
