19
Properties=species:S:1:pos:R:3:initial_charges:R:1 pbc="F F F"
O        3.28940000      -0.98510000       0.00070000      -0.28000000
O       -2.62413751       1.61818089       2.20309570      -0.57000000
N       -0.74366311       0.85248789       1.10151420      -0.54000000
C       -0.15590000       0.27550000      -0.00850000       0.16000000
C        1.30410000       0.06880000      -0.00380000      -0.05000000
C       -0.91952963      -0.06721479      -1.06045189      -0.15000000
C        2.32750000       1.04640000       0.00560000      -0.15000000
C        1.94060000      -1.15050000      -0.00650000      -0.01000000
C       -2.10106096       1.10739645       1.21590036       0.62000000
C       -2.34330416       0.16168201      -1.02360472      -0.15000000
C       -2.93218207       0.71807218       0.04190026      -0.14000000
C        3.51650000       0.35470000       0.00800000      -0.01000000
H       -0.15417588       1.10907346       1.88700423       0.37000000
H       -0.52253009      -0.51830349      -1.96284471       0.15000000
H        2.23260000       2.12300000       0.01050000       0.15000000
H        1.60980000      -2.17950000      -0.01280000       0.15000000
H       -2.92747366      -0.13027606      -1.88930746       0.15000000
H       -3.99990678       0.89578842       0.08151807       0.15000000
H        4.55480000       0.65270000       0.01440000       0.15000000
