19
Properties=species:S:1:pos:R:3:initial_charges:R:1 pbc="F F F"
O        3.28940000      -0.98510000       0.00070000      -0.28000000
O       -2.61324852       1.69428279       2.16742224      -0.57000000
N       -0.73820824       0.89061434       1.08377446      -0.54000000
C       -0.15590000       0.27550000      -0.00850000       0.16000000
C        1.30410000       0.06880000      -0.00380000      -0.05000000
C       -0.92467791      -0.10321024      -1.04423428      -0.15000000
C        2.32750000       1.04640000       0.00560000      -0.15000000
C        1.94060000      -1.15050000      -0.00650000      -0.01000000
C       -2.09502322       1.14958898       1.19592049       0.62000000
C       -2.34824895       0.12710184      -1.00835657      -0.15000000
C       -2.93189035       0.72009298       0.04015298      -0.14000000
C        3.51650000       0.35470000       0.00800000      -0.01000000
H       -0.14487701       1.17407345       1.85703698       0.37000000
H       -0.53211149      -0.58528899      -1.93243142       0.15000000
H        2.23260000       2.12300000       0.01050000       0.15000000
H        1.60980000      -2.17950000      -0.01280000       0.15000000
H       -2.93665601      -0.19448139      -1.86058665       0.15000000
H       -3.99940364       0.89928111       0.07882703       0.15000000
H        4.55480000       0.65270000       0.01440000       0.15000000
