19
Properties=species:S:1:pos:R:3:initial_charges:R:1 pbc="F F F"
O        3.28940000      -0.98510000       0.00070000      -0.28000000
O       -2.51259519       2.31592564      -1.76029763      -0.57000000
N       -0.68707083       1.20715278      -0.88050497      -0.54000000
C       -0.15590000       0.27550000      -0.00850000       0.16000000
C        1.30410000       0.06880000      -0.00380000      -0.05000000
C       -0.97580651      -0.42249983       0.79632045      -0.15000000
C        2.32750000       1.04640000       0.00560000      -0.15000000
C        1.94060000      -1.15050000      -0.00650000      -0.01000000
C       -2.04030222       1.48646843      -0.98699008       0.62000000
C       -2.39914911      -0.19241786       0.75111529      -0.15000000
C       -2.93351370       0.70577737      -0.08515493      -0.14000000
C        3.51650000       0.35470000       0.00800000      -0.01000000
H       -0.05621096       1.72437422      -1.48451137       0.37000000
H       -0.62600637      -1.17048221       1.49886204       0.15000000
H        2.23260000       2.12300000       0.01050000       0.15000000
H        1.60980000      -2.17950000      -0.01280000       0.15000000
H       -3.02896417      -0.77196218       1.41699525       0.15000000
H       -4.00044317       0.88721034      -0.12911260       0.15000000
H        4.55480000       0.65270000       0.01440000       0.15000000
