19
Properties=species:S:1:pos:R:3:initial_charges:R:1 pbc="F F F"
O        3.28940000      -0.98510000       0.00070000      -0.28000000
O       -2.57154883       1.98498469       1.99859909      -0.57000000
N       -0.71731226       1.03629933       0.99972254      -0.54000000
C       -0.15590000       0.27550000      -0.00850000       0.16000000
C        1.30410000       0.06880000      -0.00380000      -0.05000000
C       -0.94442507      -0.24093553      -0.96699308      -0.15000000
C        2.32750000       1.04640000       0.00560000      -0.15000000
C        1.94060000      -1.15050000      -0.00650000      -0.01000000
C       -2.07191128       1.31069076       1.10151801       0.62000000
C       -2.36723162      -0.00532273      -0.93547364      -0.15000000
C       -2.93081187       0.72753633       0.03248450      -0.14000000
C        3.51650000       0.35470000       0.00800000      -0.01000000
H       -0.10924248       1.42254029       1.71484142       0.37000000
H       -0.56885143      -0.84150745      -1.78776118       0.15000000
H        2.23260000       2.12300000       0.01050000       0.15000000
H        1.60980000      -2.17950000      -0.01280000       0.15000000
H       -2.97188659      -0.44021416      -1.72363389       0.15000000
H       -3.99752778       0.91225938       0.06688275       0.15000000
H        4.55480000       0.65270000       0.01440000       0.15000000
