19
Properties=species:S:1:pos:R:3:initial_charges:R:1 pbc="F F F"
O        3.28940000      -0.98510000       0.00070000      -0.28000000
O       -2.44545062       2.80572616      -1.07717089      -0.57000000
N       -0.65361399       1.45125873      -0.53801319      -0.54000000
C       -0.15590000       0.27550000      -0.00850000       0.16000000
C        1.30410000       0.06880000      -0.00380000      -0.05000000
C       -1.00666366      -0.64783073       0.47196641      -0.15000000
C        2.32750000       1.04640000       0.00560000      -0.15000000
C        1.94060000      -1.15050000      -0.00650000      -0.01000000
C       -2.00279839       1.75997530      -0.60863210       0.62000000
C       -2.42833668      -0.40568020       0.43888592      -0.15000000
C       -2.93063056       0.72652008      -0.06853051      -0.14000000
C        3.51650000       0.35470000       0.00800000      -0.01000000
H        0.00044793       2.13786601      -0.90008967       0.37000000
H       -0.68375052      -1.59206581       0.89569945       0.15000000
H        2.23260000       2.12300000       0.01050000       0.15000000
H        1.60980000      -2.17950000      -0.01280000       0.15000000
H       -3.08372007      -1.17188792       0.83805142       0.15000000
H       -3.99591236       0.91988066      -0.09975657       0.15000000
H        4.55480000       0.65270000       0.01440000       0.15000000
