19
Properties=species:S:1:pos:R:3:initial_charges:R:1 pbc="F F F"
O        3.28940000      -0.98510000       0.00070000      -0.28000000
O       -3.07365565      -1.58682709       0.88848589      -0.57000000
N       -0.96829675      -0.74924436       0.43918577      -0.54000000
C       -0.15590000       0.27550000      -0.00850000       0.16000000
C        1.30410000       0.06880000      -0.00380000      -0.05000000
C       -0.70974149       1.42915538      -0.42023449      -0.15000000
C        2.32750000       1.04640000       0.00560000      -0.15000000
C        1.94060000      -1.15050000      -0.00650000      -0.01000000
C       -2.35115417      -0.67554997       0.49272071       0.62000000
C       -2.14319672       1.58931333      -0.39923697      -0.15000000
C       -2.94757141       0.60908880       0.02946957      -0.14000000
C        3.51650000       0.35470000       0.00800000      -0.01000000
H       -0.53595026      -1.61339490       0.75006564       0.37000000
H       -0.13111961       2.27331779      -0.77799001       0.15000000
H        2.23260000       2.12300000       0.01050000       0.15000000
H        1.60980000      -2.17950000      -0.01280000       0.15000000
H       -2.55416510       2.53264119      -0.74154133       0.15000000
H       -4.02508565       0.71724195       0.05079238       0.15000000
H        4.55480000       0.65270000       0.01440000       0.15000000
