19
Properties=species:S:1:pos:R:3:initial_charges:R:1 pbc="F F F"
O        3.28940000      -0.98510000       0.00070000      -0.28000000
O       -2.52453381       2.31102714       1.73286357      -0.57000000
N       -0.69373775       1.19980234       0.86723269      -0.54000000
C       -0.15590000       0.27550000      -0.00850000       0.16000000
C        1.30410000       0.06880000      -0.00380000      -0.05000000
C       -0.96676351      -0.39593466      -0.84447983      -0.15000000
C        2.32750000       1.04640000       0.00560000      -0.15000000
C        1.94060000      -1.15050000      -0.00650000      -0.01000000
C       -2.04587617       1.49121435       0.95321088       0.62000000
C       -2.38874277      -0.15462442      -0.81938546      -0.15000000
C       -2.92968644       0.73523706       0.02155125      -0.14000000
C        3.51650000       0.35470000       0.00800000      -0.01000000
H       -0.06900892       1.70161954       1.49030518       0.37000000
H       -0.61038614      -1.12967298      -1.55864067       0.15000000
H        2.23260000       2.12300000       0.01050000       0.15000000
H        1.60980000      -2.17950000      -0.01280000       0.15000000
H       -3.01176359      -0.71693430      -1.50610768       0.15000000
H       -3.99553206       0.92596250       0.04957997       0.15000000
H        4.55480000       0.65270000       0.01440000       0.15000000
