19
Properties=species:S:1:pos:R:3:initial_charges:R:1 pbc="F F F"
O        3.28940000      -0.98510000       0.00070000      -0.28000000
O       -2.43011527       2.95347189       0.65674840      -0.57000000
N       -0.64628617       1.52274900       0.32973565      -0.54000000
C       -0.15590000       0.27550000      -0.00850000       0.16000000
C        1.30410000       0.06880000      -0.00380000      -0.05000000
C       -1.01215871      -0.70518780      -0.34355055      -0.15000000
C        2.32750000       1.04640000       0.00560000      -0.15000000
C        1.94060000      -1.15050000      -0.00650000      -0.01000000
C       -1.99375504       1.84574300       0.35410849       0.62000000
C       -2.43272568      -0.45444268      -0.34223280      -0.15000000
C       -2.92807757       0.74572766      -0.01686265      -0.14000000
C        3.51650000       0.35470000       0.00800000      -0.01000000
H        0.01219942       2.25446568       0.57735100       0.37000000
H       -0.69460211      -1.70326028      -0.62357127       0.15000000
H        2.23260000       2.12300000       0.01050000       0.15000000
H        1.60980000      -2.17950000      -0.01280000       0.15000000
H       -3.09296735      -1.27024796      -0.61513834       0.15000000
H       -3.99238203       0.94679466      -0.01276835       0.15000000
H        4.55480000       0.65270000       0.01440000       0.15000000
