19
Properties=species:S:1:pos:R:3:initial_charges:R:1 pbc="F F F"
O        3.28940000      -0.98510000       0.00070000      -0.28000000
O       -2.79881495       0.38878626       2.39739084      -0.57000000
N       -0.83109318       0.23710679       1.19696761      -0.54000000
C       -0.15590000       0.27550000      -0.00850000       0.16000000
C        1.30410000       0.06880000      -0.00380000      -0.05000000
C       -0.83731465       0.51162347      -1.14300703      -0.15000000
C        2.32750000       1.04640000       0.00560000      -0.15000000
C        1.94060000      -1.15050000      -0.00650000      -0.01000000
C       -2.19803073       0.42497721       1.32649729       0.62000000
C       -2.26452712       0.71641817      -1.09818433      -0.15000000
C       -2.93731556       0.68218897       0.05846260      -0.14000000
C        3.51650000       0.35470000       0.00800000      -0.01000000
H       -0.30306024       0.06105782       2.04579852       0.37000000
H       -0.36938834       0.55982555      -2.11979974       0.15000000
H        2.23260000       2.12300000       0.01050000       0.15000000
H        1.60980000      -2.17950000      -0.01280000       0.15000000
H       -2.78095416       0.90136510      -2.03361605       0.15000000
H       -4.00857578       0.83510030       0.10545583       0.15000000
H        4.55480000       0.65270000       0.01440000       0.15000000
