19
Properties=species:S:1:pos:R:3:initial_charges:R:1 pbc="F F F"
O        3.28940000      -0.98510000       0.00070000      -0.28000000
O       -2.99404430      -1.08351401      -1.70678201      -0.57000000
N       -0.92795141      -0.49377929      -0.85859294      -0.54000000
C       -0.15590000       0.27550000      -0.00850000       0.16000000
C        1.30410000       0.06880000      -0.00380000      -0.05000000
C       -0.74967834       1.17470480       0.79526890      -0.15000000
C        2.32750000       1.04640000       0.00560000      -0.15000000
C        1.94060000      -1.15050000      -0.00650000      -0.01000000
C       -2.30771799      -0.40154551      -0.94985426       0.62000000
C       -2.18271802       1.33657272       0.76238422      -0.15000000
C       -2.94824145       0.60245522      -0.05412876      -0.14000000
C        3.51650000       0.35470000       0.00800000      -0.01000000
H       -0.46620551      -1.17095501      -1.45738315       0.37000000
H       -0.20462811       1.80563042       1.48827364       0.15000000
H        2.23260000       2.12300000       0.01050000       0.15000000
H        1.60980000      -2.17950000      -0.01280000       0.15000000
H       -2.62611987       2.07361016       1.42276695       0.15000000
H       -4.02509914       0.71399850      -0.08765931       0.15000000
H        4.55480000       0.65270000       0.01440000       0.15000000
