19
Properties=species:S:1:pos:R:3:initial_charges:R:1 pbc="F F F"
O        3.28940000      -0.98510000       0.00070000      -0.28000000
O       -2.56165149       2.05379097       1.95011812      -0.57000000
N       -0.71235097       1.07079348       0.97556434      -0.54000000
C       -0.15590000       0.27550000      -0.00850000       0.16000000
C        1.30410000       0.06880000      -0.00380000      -0.05000000
C       -0.94912029      -0.27359295      -0.94470773      -0.15000000
C        2.32750000       1.04640000       0.00560000      -0.15000000
C        1.94060000      -1.15050000      -0.00650000      -0.01000000
C       -2.06642826       1.34880374       1.07444043       0.62000000
C       -2.37174926      -0.03675315      -0.91439133      -0.15000000
C       -2.93056599       0.72922586       0.03040923      -0.14000000
C        3.51650000       0.35470000       0.00800000      -0.01000000
H       -0.10077836       1.48139528       1.67392746       0.37000000
H       -0.57758404      -0.90224094      -1.74605970       0.15000000
H        2.23260000       2.12300000       0.01050000       0.15000000
H        1.60980000      -2.17950000      -0.01280000       0.15000000
H       -2.98026587      -0.49850093      -1.68408690       0.15000000
H       -3.99709586       0.91523605       0.06361984       0.15000000
H        4.55480000       0.65270000       0.01440000       0.15000000
