19
Properties=species:S:1:pos:R:3:initial_charges:R:1 pbc="F F F"
O        3.28940000      -0.98510000       0.00070000      -0.28000000
O       -3.08443253      -1.66841575       0.64803081      -0.57000000
N       -0.97364067      -0.78972872       0.31876137      -0.54000000
C       -0.15590000       0.27550000      -0.00850000       0.16000000
C        1.30410000       0.06880000      -0.00380000      -0.05000000
C       -0.70491754       1.46581011      -0.30670797      -0.15000000
C        2.32750000       1.04640000       0.00560000      -0.15000000
C        1.94060000      -1.15050000      -0.00650000      -0.01000000
C       -2.35721323      -0.72138020       0.35934376       0.62000000
C       -2.13870083       1.62354702      -0.29027861      -0.15000000
C       -2.94819122       0.60455994       0.02283269      -0.14000000
C        3.51650000       0.35470000       0.00800000      -0.01000000
H       -0.54494559      -1.68159859       0.54484675       0.37000000
H       -0.12204525       2.34221892      -0.56665019       0.15000000
H        2.23260000       2.12300000       0.01050000       0.15000000
H        1.60980000      -2.17950000      -0.01280000       0.15000000
H       -2.54564679       2.59741225      -0.53910839       0.15000000
H       -4.02601974       0.71038564       0.03942497       0.15000000
H        4.55480000       0.65270000       0.01440000       0.15000000
