19
Properties=species:S:1:pos:R:3:initial_charges:R:1 pbc="F F F"
O        3.28940000      -0.98510000       0.00070000      -0.28000000
O       -2.91164157      -0.41347017       2.16344669      -0.57000000
N       -0.88749408      -0.16396166       1.07876978      -0.54000000
C       -0.15590000       0.27550000      -0.00850000       0.16000000
C        1.30410000       0.06880000      -0.00380000      -0.05000000
C       -0.78456449       0.88684569      -1.02743269      -0.15000000
C        2.32750000       1.04640000       0.00560000      -0.15000000
C        1.94060000      -1.15050000      -0.00650000      -0.01000000
C       -2.26077370      -0.02111484       1.19830796       0.62000000
C       -2.21416266       1.07474257      -0.98466353      -0.15000000
C       -2.94106292       0.65571524       0.05825553      -0.14000000
C        3.51650000       0.35470000       0.00800000      -0.01000000
H       -0.39895590      -0.62091850       1.84221383       0.37000000
H       -0.27100423       1.25960025      -1.90647328       0.15000000
H        2.23260000       2.12300000       0.01050000       0.15000000
H        1.60980000      -2.17950000      -0.01280000       0.15000000
H       -2.68705744       1.56931577      -1.82591416       0.15000000
H       -4.01474369       0.79146979       0.10262913       0.15000000
H        4.55480000       0.65270000       0.01440000       0.15000000
