19
Properties=species:S:1:pos:R:3:initial_charges:R:1 pbc="F F F"
O        3.28940000      -0.98510000       0.00070000      -0.28000000
O       -2.82927116       0.06517226      -2.37387371      -0.57000000
N       -0.84538255       0.08188377      -1.19071766      -0.54000000
C       -0.15590000       0.27550000      -0.00850000       0.16000000
C        1.30410000       0.06880000      -0.00380000      -0.05000000
C       -0.82770772       0.63049388       1.10048158      -0.15000000
C        2.32750000       1.04640000       0.00560000      -0.15000000
C        1.94060000      -1.15050000      -0.00650000      -0.01000000
C       -2.21639294       0.23503581      -1.32287842       0.62000000
C       -2.25772662       0.81330719       1.05037553      -0.15000000
C       -2.94397991       0.63186703      -0.08443015      -0.14000000
C        3.51650000       0.35470000       0.00800000      -0.01000000
H       -0.32539840      -0.18915736      -2.01925802       0.37000000
H       -0.34980315       0.79320282       2.05992699       0.15000000
H        2.23260000       2.12300000       0.01050000       0.15000000
H        1.60980000      -2.17950000      -0.01280000       0.15000000
H       -2.76533079       1.10261597       1.96392530       0.15000000
H       -4.01768685       0.76528112      -0.13485622       0.15000000
H        4.55480000       0.65270000       0.01440000       0.15000000
