19
Properties=species:S:1:pos:R:3:initial_charges:R:1 pbc="F F F"
O        3.28940000      -0.98510000       0.00070000      -0.28000000
O       -2.66915219       1.30284609       2.31835783      -0.57000000
N       -0.76620694       0.69455334       1.15873252      -0.54000000
C       -0.15590000       0.27550000      -0.00850000       0.16000000
C        1.30410000       0.06880000      -0.00380000      -0.05000000
C       -0.89827854       0.08170937      -1.11235946      -0.15000000
C        2.32750000       1.04640000       0.00560000      -0.15000000
C        1.94060000      -1.15050000      -0.00650000      -0.01000000
C       -2.12603050       0.93249850       1.28060740       0.62000000
C       -2.32290909       0.30463622      -1.07215020      -0.15000000
C       -2.93342671       0.70942285       0.04814622      -0.14000000
C        3.51650000       0.35470000       0.00800000      -0.01000000
H       -0.19259276       0.83991360       1.98345254       0.37000000
H       -0.48296865      -0.24108367      -2.06037043       0.15000000
H        2.23260000       2.12300000       0.01050000       0.15000000
H        1.60980000      -2.17950000      -0.01280000       0.15000000
H       -2.88958070       0.13528965      -1.98107252       0.15000000
H       -4.00203769       0.88095267       0.09100384       0.15000000
H        4.55480000       0.65270000       0.01440000       0.15000000
