19
Properties=species:S:1:pos:R:3:initial_charges:R:1 pbc="F F F"
O        3.28940000      -0.98510000       0.00070000      -0.28000000
O       -3.08321233      -1.68837201      -0.60866097      -0.57000000
N       -0.97278052      -0.79795087      -0.31003185      -0.54000000
C       -0.15590000       0.27550000      -0.00850000       0.16000000
C        1.30410000       0.06880000      -0.00380000      -0.05000000
C       -0.70672699       1.46645502       0.28373652      -0.15000000
C        2.32750000       1.04640000       0.00560000      -0.15000000
C        1.94060000      -1.15050000      -0.00650000      -0.01000000
C       -2.35691594      -0.73515056      -0.33861121       0.62000000
C       -2.14106283       1.61971556       0.27494691      -0.15000000
C       -2.94966258       0.59329858      -0.01536790      -0.14000000
C        3.51650000       0.35470000       0.00800000      -0.01000000
H       -0.54295962      -1.69190844      -0.52548439       0.37000000
H       -0.12497409       2.34654786       0.53354170       0.15000000
H        2.23260000       2.12300000       0.01050000       0.15000000
H        1.60980000      -2.17950000      -0.01280000       0.15000000
H       -2.54926274       2.59579051       0.51282351       0.15000000
H       -4.02794455       0.69533380      -0.02461371       0.15000000
H        4.55480000       0.65270000       0.01440000       0.15000000
