19
Properties=species:S:1:pos:R:3:initial_charges:R:1 pbc="F F F"
O        3.28940000      -0.98510000       0.00070000      -0.28000000
O       -2.96174861      -0.77236699       1.94478756      -0.57000000
N       -0.91251929      -0.34322343       0.96885387      -0.54000000
C       -0.15590000       0.27550000      -0.00850000       0.16000000
C        1.30410000       0.06880000      -0.00380000      -0.05000000
C       -0.76125071       1.05391294      -0.92217950      -0.15000000
C        2.32750000       1.04640000       0.00560000      -0.15000000
C        1.94060000      -1.15050000      -0.00650000      -0.01000000
C       -2.28867301      -0.22092192       1.07764165       0.62000000
C       -2.19196110       1.23388076      -0.88262276      -0.15000000
C       -2.94286494       0.64290566       0.05468184      -0.14000000
C        3.51650000       0.35470000       0.00800000      -0.01000000
H       -0.44145730      -0.92540044       1.65405200       0.37000000
H       -0.22748116       1.57145901      -1.71125402       0.15000000
H        2.23260000       2.12300000       0.01050000       0.15000000
H        1.60980000      -2.17950000      -0.01280000       0.15000000
H       -2.64559430       1.86646757      -1.63759667       0.15000000
H       -4.01766440       0.77067839       0.09553463       0.15000000
H        4.55480000       0.65270000       0.01440000       0.15000000
