19
Properties=species:S:1:pos:R:3:initial_charges:R:1 pbc="F F F"
O        3.28940000      -0.98510000       0.00070000      -0.28000000
O       -3.00235801      -1.14082996      -1.64490771      -0.57000000
N       -0.93212307      -0.52254323      -0.82771717      -0.54000000
C       -0.15590000       0.27550000      -0.00850000       0.16000000
C        1.30410000       0.06880000      -0.00380000      -0.05000000
C       -0.74571356       1.20205785       0.76661092      -0.15000000
C        2.32750000       1.04640000       0.00560000      -0.15000000
C        1.94060000      -1.15050000      -0.00650000      -0.01000000
C       -2.31231729      -0.43324787      -0.91536274       0.62000000
C       -2.17889271       1.36297336       0.73516074      -0.15000000
C       -2.94842259       0.60122998      -0.05174387      -0.14000000
C        3.51650000       0.35470000       0.00800000      -0.01000000
H       -0.47333127      -1.22009581      -1.40500082       0.37000000
H       -0.19726145       1.85644638       1.43472647       0.15000000
H        2.23260000       2.12300000       0.01050000       0.15000000
H        1.60980000      -2.17950000      -0.01280000       0.15000000
H       -2.61903765       2.12247662       1.37184117       0.15000000
H       -4.02542850       0.71175886      -0.08384235       0.15000000
H        4.55480000       0.65270000       0.01440000       0.15000000
