19
Properties=species:S:1:pos:R:3:initial_charges:R:1 pbc="F F F"
O        3.28940000      -0.98510000       0.00070000      -0.28000000
O       -2.85226616      -0.09619480      -2.32746452      -0.57000000
N       -0.85689621       0.00108117      -1.16772847      -0.54000000
C       -0.15590000       0.27550000      -0.00850000       0.16000000
C        1.30410000       0.06880000      -0.00380000      -0.05000000
C       -0.81686423       0.70661587       1.07982524      -0.15000000
C        2.32750000       1.04640000       0.00560000      -0.15000000
C        1.94060000      -1.15050000      -0.00650000      -0.01000000
C       -2.22915199       0.14550797      -1.29674974       0.62000000
C       -2.24732613       0.88633339       1.03118668      -0.15000000
C       -2.94463069       0.62733431      -0.08161784      -0.14000000
C        3.51650000       0.35470000       0.00800000      -0.01000000
H       -0.34501362      -0.32682831      -1.98061070       0.37000000
H       -0.32961232       0.93493374       2.02102606       0.15000000
H        2.23260000       2.12300000       0.01050000       0.15000000
H        1.60980000      -2.17950000      -0.01280000       0.15000000
H       -2.74599956       1.23833124       1.92748857       0.15000000
H       -4.01879511       0.75754879      -0.13064507       0.15000000
H        4.55480000       0.65270000       0.01440000       0.15000000
