19
Properties=species:S:1:pos:R:3:initial_charges:R:1 pbc="F F F"
O        3.28940000      -0.98510000       0.00070000      -0.28000000
O       -2.89672462      -0.40734965      -2.20115608      -0.57000000
N       -0.87916396      -0.15477750      -1.10497733      -0.54000000
C       -0.15590000       0.27550000      -0.00850000       0.16000000
C        1.30410000       0.06880000      -0.00380000      -0.05000000
C       -0.79586345       0.85365329       1.02269929      -0.15000000
C        2.32750000       1.04640000       0.00560000      -0.15000000
C        1.94060000      -1.15050000      -0.00650000      -0.01000000
C       -2.25380922      -0.02704473      -1.22591641       0.62000000
C       -2.22716508       1.02752077       0.97763124      -0.15000000
C       -2.94584497       0.61890622      -0.07507072      -0.14000000
C        3.51650000       0.35470000       0.00800000      -0.01000000
H       -0.38296521      -0.59248720      -1.87473246       0.37000000
H       -0.29052125       1.20861031       1.91378695       0.15000000
H        2.23260000       2.12300000       0.01050000       0.15000000
H        1.60980000      -2.17950000      -0.01280000       0.15000000
H       -2.70854906       1.50056004       1.82641747       0.15000000
H       -4.02087997       0.74305010      -0.12064201       0.15000000
H        4.55480000       0.65270000       0.01440000       0.15000000
