19
Properties=species:S:1:pos:R:3:initial_charges:R:1 pbc="F F F"
O        3.28940000      -0.98510000       0.00070000      -0.28000000
O       -2.69234227       1.13997112       2.35905026      -0.57000000
N       -0.77781707       0.61300429       1.17885927      -0.54000000
C       -0.15590000       0.27550000      -0.00850000       0.16000000
C        1.30410000       0.06880000      -0.00380000      -0.05000000
C       -0.88734907       0.15849996      -1.13031980      -0.15000000
C        2.32750000       1.04640000       0.00560000      -0.15000000
C        1.94060000      -1.15050000      -0.00650000      -0.01000000
C       -2.13889964       0.84212091       1.30356413       0.62000000
C       -2.31242920       0.37828216      -1.08875309      -0.15000000
C       -2.93409034       0.70479564       0.05079701      -0.14000000
C        3.51650000       0.35470000       0.00800000      -0.01000000
H       -0.21236979       0.70098888       2.01722317       0.37000000
H       -0.46261557      -0.09809263      -2.09425141       0.15000000
H        2.23260000       2.12300000       0.01050000       0.15000000
H        1.60980000      -2.17950000      -0.01280000       0.15000000
H       -2.87009809       0.27218346      -2.01270289       0.15000000
H       -4.00316502       0.87307941       0.09493981       0.15000000
H        4.55480000       0.65270000       0.01440000       0.15000000
