19
Properties=species:S:1:pos:R:3:initial_charges:R:1 pbc="F F F"
O        3.28940000      -0.98510000       0.00070000      -0.28000000
O       -3.01037034      -1.19597202      -1.58104988      -0.57000000
N       -0.93614434      -0.55022227      -0.79584587      -0.54000000
C       -0.15590000       0.27550000      -0.00850000       0.16000000
C        1.30410000       0.06880000      -0.00380000      -0.05000000
C       -0.74188836       1.22840352       0.73700582      -0.15000000
C        2.32750000       1.04640000       0.00560000      -0.15000000
C        1.94060000      -1.15050000      -0.00650000      -0.01000000
C       -2.31674859      -0.46373857      -0.87977426       0.62000000
C       -2.17519996       1.38841679       0.70702286      -0.15000000
C       -2.94859209       0.60008793      -0.04931720      -0.14000000
C        3.51650000       0.35470000       0.00800000      -0.01000000
H       -0.48020189      -1.26739583      -1.35091750       0.37000000
H       -0.19015558       1.90538025       1.37941995       0.15000000
H        2.23260000       2.12300000       0.01050000       0.15000000
H        1.60980000      -2.17950000      -0.01280000       0.15000000
H       -2.61220343       2.16955280       1.31922319       0.15000000
H       -4.02573925       0.70965251      -0.07994870       0.15000000
H        4.55480000       0.65270000       0.01440000       0.15000000
