19
Properties=species:S:1:pos:R:3:initial_charges:R:1 pbc="F F F"
O        3.28940000      -0.98510000       0.00070000      -0.28000000
O       -3.01346332      -1.14538654       1.60443436      -0.57000000
N       -0.93832465      -0.52938061       0.79803016      -0.54000000
C       -0.15590000       0.27550000      -0.00850000       0.16000000
C        1.30410000       0.06880000      -0.00380000      -0.05000000
C       -0.73730176       1.22676880      -0.75966316      -0.15000000
C        2.32750000       1.04640000       0.00560000      -0.15000000
C        1.94060000      -1.15050000      -0.00650000      -0.01000000
C       -2.31750219      -0.42883322       0.88941415       0.62000000
C       -2.16921272       1.39812885      -0.72572064      -0.15000000
C       -2.94486247       0.62863342       0.04751433      -0.14000000
C        3.51650000       0.35470000       0.00800000      -0.01000000
H       -0.48523595      -1.24126223       1.36217653       0.37000000
H       -0.18273150       1.89440716      -1.40936563       0.15000000
H        2.23260000       2.12300000       0.01050000       0.15000000
H        1.60980000      -2.17950000      -0.01280000       0.15000000
H       -2.60303765       2.17366361      -1.34723211       0.15000000
H       -4.02086019       0.74780615       0.08237766       0.15000000
H        4.55480000       0.65270000       0.01440000       0.15000000
