19
Properties=species:S:1:pos:R:3:initial_charges:R:1 pbc="F F F"
O        3.28940000      -0.98510000       0.00070000      -0.28000000
O       -3.03250330      -1.34769676      -1.37836484      -0.57000000
N       -0.94725777      -0.62641968      -0.69465288      -0.54000000
C       -0.15590000       0.27550000      -0.00850000       0.16000000
C        1.30410000       0.06880000      -0.00380000      -0.05000000
C       -0.73129590       1.30108171       0.64287404      -0.15000000
C        2.32750000       1.04640000       0.00560000      -0.15000000
C        1.94060000      -1.15050000      -0.00650000      -0.01000000
C       -2.32898149      -0.54757680      -0.76686703       0.62000000
C       -2.16496133       1.45869990       0.61747099      -0.15000000
C       -2.94902874       0.59717421      -0.04181637      -0.14000000
C        3.51650000       0.35470000       0.00800000      -0.01000000
H       -0.49920085      -1.39768651      -1.17913034       0.37000000
H       -0.17048765       2.04030507       1.20362834       0.15000000
H        2.23260000       2.12300000       0.01050000       0.15000000
H        1.60980000      -2.17950000      -0.01280000       0.15000000
H       -2.59327056       2.29947741       1.15186702       0.15000000
H       -4.02655605       0.70415806      -0.06785558       0.15000000
H        4.55480000       0.65270000       0.01440000       0.15000000
