19
Properties=species:S:1:pos:R:3:initial_charges:R:1 pbc="F F F"
O        3.28940000      -0.98510000       0.00070000      -0.28000000
O       -3.08722742      -1.69001943       0.56612761      -0.57000000
N       -0.97502268      -0.80042290       0.27775157      -0.54000000
C       -0.15590000       0.27550000      -0.00850000       0.16000000
C        1.30410000       0.06880000      -0.00380000      -0.05000000
C       -0.70368572       1.47538918      -0.26808268      -0.15000000
C        2.32750000       1.04640000       0.00560000      -0.15000000
C        1.94060000      -1.15050000      -0.00650000      -0.01000000
C       -2.35879052      -0.73355446       0.31389974       0.62000000
C       -2.13756307       1.63242591      -0.25322979      -0.15000000
C       -2.94837543       0.60320620       0.02051856      -0.14000000
C        3.51650000       0.35470000       0.00800000      -0.01000000
H       -0.54726372      -1.69956109       0.47497917       0.37000000
H       -0.11972084       2.36027245      -0.49473013       0.15000000
H        2.23260000       2.12300000       0.01050000       0.15000000
H        1.60980000      -2.17950000      -0.01280000       0.15000000
H       -2.54347800       2.61429699      -0.47024820       0.15000000
H       -4.02629289       0.70836658       0.03548257       0.15000000
H        4.55480000       0.65270000       0.01440000       0.15000000
