19
Properties=species:S:1:pos:R:3:initial_charges:R:1 pbc="F F F"
O        3.28940000      -0.98510000       0.00070000      -0.28000000
O       -2.57762855       1.84845204      -2.11733775      -0.57000000
N       -0.71953622       0.97376039      -1.05981283      -0.54000000
C       -0.15590000       0.27550000      -0.00850000       0.16000000
C        1.30410000       0.06880000      -0.00380000      -0.05000000
C       -0.94561990      -0.20539159       0.96734434      -0.15000000
C        2.32750000       1.04640000       0.00560000      -0.15000000
C        1.94060000      -1.15050000      -0.00650000      -0.01000000
C       -2.07653460       1.22605948      -1.18427997       0.62000000
C       -2.37043967       0.01412835       0.91650162      -0.15000000
C       -2.93594046       0.68848026      -0.09201532      -0.14000000
C        3.51650000       0.35470000       0.00800000      -0.01000000
H       -0.11131786       1.32816186      -1.79111028       0.37000000
H       -0.56962674      -0.76503223       1.81636375       0.15000000
H        2.23260000       2.12300000       0.01050000       0.15000000
H        1.60980000      -2.17950000      -0.01280000       0.15000000
H       -2.97530089      -0.38596636       1.72272856       0.15000000
H       -4.00434976       0.85932246      -0.14204717       0.15000000
H        4.55480000       0.65270000       0.01440000       0.15000000
