19
Properties=species:S:1:pos:R:3:initial_charges:R:1 pbc="F F F"
O        3.28940000      -0.98510000       0.00070000      -0.28000000
O       -2.49960281       2.48290516       1.54731604      -0.57000000
N       -0.68122786       1.28605910       0.77464300      -0.54000000
C       -0.15590000       0.27550000      -0.00850000       0.16000000
C        1.30410000       0.06880000      -0.00380000      -0.05000000
C       -0.97865300      -0.47796048      -0.75854081      -0.15000000
C        2.32750000       1.04640000       0.00560000      -0.15000000
C        1.94060000      -1.15050000      -0.00650000      -0.01000000
C       -2.03208385       1.58628282       0.84977833       0.62000000
C       -2.40021406      -0.23379417      -0.73774820      -0.15000000
C       -2.92914324       0.73891127       0.01439946      -0.14000000
C        3.51650000       0.35470000       0.00800000      -0.01000000
H       -0.04764034       1.84898208       1.33322202       0.37000000
H       -0.63247716      -1.28205893      -1.39806441       0.15000000
H        2.23260000       2.12300000       0.01050000       0.15000000
H        1.60980000      -2.17950000      -0.01280000       0.15000000
H       -3.03300164      -0.86347415      -1.35339238       0.15000000
H       -3.99454436       0.93267870       0.03813372       0.15000000
H        4.55480000       0.65270000       0.01440000       0.15000000
