19
Properties=species:S:1:pos:R:3:initial_charges:R:1 pbc="F F F"
O        3.28940000      -0.98510000       0.00070000      -0.28000000
O       -3.08123626      -1.64399540       0.72912394      -0.57000000
N       -0.97205768      -0.77762411       0.35936990      -0.54000000
C       -0.15590000       0.27550000      -0.00850000       0.16000000
C        1.30410000       0.06880000      -0.00380000      -0.05000000
C       -0.70633863       1.45490233      -0.34497269      -0.15000000
C        2.32750000       1.04640000       0.00560000      -0.15000000
C        1.94060000      -1.15050000      -0.00650000      -0.01000000
C       -2.35541324      -0.70764323       0.40433169       0.62000000
C       -2.14002013       1.61339346      -0.32699249      -0.15000000
C       -2.94799566       0.60599280       0.02509773      -0.14000000
C        3.51650000       0.35470000       0.00800000      -0.01000000
H       -0.54228507      -1.66123303       0.61403973       0.37000000
H       -0.12472209       2.32169146      -0.63789123       0.15000000
H        2.23260000       2.12300000       0.01050000       0.15000000
H        1.60980000      -2.17950000      -0.01280000       0.15000000
H       -2.54815300       2.57815859      -0.60733258       0.15000000
H       -4.02572724       0.71253966       0.04329387       0.15000000
H        4.55480000       0.65270000       0.01440000       0.15000000
