19
Properties=species:S:1:pos:R:3:initial_charges:R:1 pbc="F F F"
O        3.28940000      -0.98510000       0.00070000      -0.28000000
O       -2.65319849       1.30939200      -2.34959195      -0.57000000
N       -0.75729787       0.70437581      -1.17678856      -0.54000000
C       -0.15590000       0.27550000      -0.00850000       0.16000000
C        1.30410000       0.06880000      -0.00380000      -0.05000000
C       -0.91036281       0.04621004       1.08026003      -0.15000000
C        2.32750000       1.04640000       0.00560000      -0.15000000
C        1.94060000      -1.15050000      -0.00650000      -0.01000000
C       -2.11858198       0.92615648      -1.31210451       0.62000000
C       -2.33681520       0.25413244       1.02652725      -0.15000000
C       -2.93854112       0.67005554      -0.09444642      -0.14000000
C        3.51650000       0.35470000       0.00800000      -0.01000000
H       -0.17549070       0.87032092      -1.99182757       0.37000000
H       -0.50384213      -0.29561750       2.02540411       0.15000000
H        2.23260000       2.12300000       0.01050000       0.15000000
H        1.60980000      -2.17950000      -0.01280000       0.15000000
H       -2.91256602       0.06175528       1.92510210       0.15000000
H       -4.00860046       0.82916773      -0.14778501       0.15000000
H        4.55480000       0.65270000       0.01440000       0.15000000
