19
Properties=species:S:1:pos:R:3:initial_charges:R:1 pbc="F F F"
O        3.28940000      -0.98510000       0.00070000      -0.28000000
O       -3.07610762      -1.64189109      -0.77148283      -0.57000000
N       -0.96919368      -0.77446648      -0.39143054      -0.54000000
C       -0.15590000       0.27550000      -0.00850000       0.16000000
C        1.30410000       0.06880000      -0.00380000      -0.05000000
C       -0.71022337       1.44349035       0.35988915      -0.15000000
C        2.32750000       1.04640000       0.00560000      -0.15000000
C        1.94060000      -1.15050000      -0.00650000      -0.01000000
C       -2.35301876      -0.70968200      -0.42914794       0.62000000
C       -2.14449053       1.59715800       0.34766978      -0.15000000
C       -2.94963979       0.59333738      -0.02074155      -0.14000000
C        3.51650000       0.35470000       0.00800000      -0.01000000
H       -0.53678727      -1.65145798      -0.66389438       0.37000000
H       -0.13143230       2.30416046       0.67556355       0.15000000
H        2.23260000       2.12300000       0.01050000       0.15000000
H        1.60980000      -2.17950000      -0.01280000       0.15000000
H       -2.55554210       2.55451948       0.64838618       0.15000000
H       -4.02783697       0.69589234      -0.03346963       0.15000000
H        4.55480000       0.65270000       0.01440000       0.15000000
