19
Properties=species:S:1:pos:R:3:initial_charges:R:1 pbc="F F F"
O        3.28940000      -0.98510000       0.00070000      -0.28000000
O       -2.95218354      -0.70369705       1.99352783      -0.57000000
N       -0.90774355      -0.30893385       0.99333849      -0.54000000
C       -0.15590000       0.27550000      -0.00850000       0.16000000
C        1.30410000       0.06880000      -0.00380000      -0.05000000
C       -0.76569426       1.02199488      -0.94556071      -0.15000000
C        2.32750000       1.04640000       0.00560000      -0.15000000
C        1.94060000      -1.15050000      -0.00650000      -0.01000000
C       -2.28334512      -0.18267685       1.10456351       0.62000000
C       -2.19618912       1.20350220      -0.90525043      -0.15000000
C       -2.94251255       0.64541511       0.05557640      -0.14000000
C        3.51650000       0.35470000       0.00800000      -0.01000000
H       -0.43334937      -0.86717875       1.69593278       0.37000000
H       -0.23577903       1.51186132      -1.75464859       0.15000000
H        2.23260000       2.12300000       0.01050000       0.15000000
H        1.60980000      -2.17950000      -0.01280000       0.15000000
H       -2.65349486       1.80971232      -1.67940513       0.15000000
H       -4.01709578       0.77473361       0.09724507       0.15000000
H        4.55480000       0.65270000       0.01440000       0.15000000
