19
Properties=species:S:1:pos:R:3:initial_charges:R:1 pbc="F F F"
O        3.28940000      -0.98510000       0.00070000      -0.28000000
O       -2.42554062       2.95534890      -0.68176466      -0.57000000
N       -0.64373153       1.52556555      -0.33996424      -0.54000000
C       -0.15590000       0.27550000      -0.00850000       0.16000000
C        1.30410000       0.06880000      -0.00380000      -0.05000000
C       -1.01562382      -0.71536707       0.28517298      -0.15000000
C        2.32750000       1.04640000       0.00560000      -0.15000000
C        1.94060000      -1.15050000      -0.00650000      -0.01000000
C       -1.99161921       1.84392445      -0.38933968       0.62000000
C       -2.43671320      -0.46892441       0.25955328      -0.15000000
C       -2.92954410       0.73443926      -0.05775043      -0.14000000
C        3.51650000       0.35470000       0.00800000      -0.01000000
H        0.01710336       2.26318484      -0.56254222       0.37000000
H       -0.70058749      -1.71889760       0.54800573       0.15000000
H        2.23260000       2.12300000       0.01050000       0.15000000
H        1.60980000      -2.17950000      -0.01280000       0.15000000
H       -3.09955829      -1.29133360       0.50493921       0.15000000
H       -3.99426387       0.93194557      -0.08123995       0.15000000
H        4.55480000       0.65270000       0.01440000       0.15000000
