19
Properties=species:S:1:pos:R:3:initial_charges:R:1 pbc="F F F"
O        3.28940000      -0.98510000       0.00070000      -0.28000000
O       -2.53341954       2.24957547       1.79054720      -0.57000000
N       -0.69819476       1.16897504       0.89600581      -0.54000000
C       -0.15590000       0.27550000      -0.00850000       0.16000000
C        1.30410000       0.06880000      -0.00380000      -0.05000000
C       -0.96253426      -0.36666803      -0.87114003      -0.15000000
C        2.32750000       1.04640000       0.00560000      -0.15000000
C        1.94060000      -1.15050000      -0.00650000      -0.01000000
C       -2.05079449       1.45720595       0.98538381       0.62000000
C       -2.38466645      -0.12640699      -0.84468180      -0.15000000
C       -2.92989019       0.73385005       0.02384394      -0.14000000
C        3.51650000       0.35470000       0.00800000      -0.01000000
H       -0.07661860       1.64897895       1.53909620       0.37000000
H       -0.60252512      -1.07528081      -1.60847565       0.15000000
H        2.23260000       2.12300000       0.01050000       0.15000000
H        1.60980000      -2.17950000      -0.01280000       0.15000000
H       -3.00421152      -0.66466799      -1.55346508       0.15000000
H       -3.99589745       0.92346461       0.05322974       0.15000000
H        4.55480000       0.65270000       0.01440000       0.15000000
