19
Properties=species:S:1:pos:R:3:initial_charges:R:1 pbc="F F F"
O        3.28940000      -0.98510000       0.00070000      -0.28000000
O       -2.53891138       2.12624510      -1.92739116      -0.57000000
N       -0.70020367       1.11248343      -0.96437880      -0.54000000
C       -0.15590000       0.27550000      -0.00850000       0.16000000
C        1.30410000       0.06880000      -0.00380000      -0.05000000
C       -0.96361355      -0.33456107       0.87615289      -0.15000000
C        2.32750000       1.04640000       0.00560000      -0.15000000
C        1.94060000      -1.15050000      -0.00650000      -0.01000000
C       -2.05497074       1.38075826      -1.07938450       0.62000000
C       -2.38756428      -0.10883677       0.82821313      -0.15000000
C       -2.93452286       0.69857059      -0.08861713      -0.14000000
C        3.51650000       0.35470000       0.00800000      -0.01000000
H       -0.07849329       1.56372663      -1.62784071       0.37000000
H       -0.60322547      -1.00620051       1.64714144       0.15000000
H        2.23260000       2.12300000       0.01050000       0.15000000
H        1.60980000      -2.17950000      -0.01280000       0.15000000
H       -3.00729567      -0.61566579       1.55964468       0.15000000
H       -4.00205976       0.87564652      -0.13549731       0.15000000
H        4.55480000       0.65270000       0.01440000       0.15000000
