19
Properties=species:S:1:pos:R:3:initial_charges:R:1 pbc="F F F"
O        3.28940000      -0.98510000       0.00070000      -0.28000000
O       -2.92209488      -0.48818390       2.12482996      -0.57000000
N       -0.89271622      -0.20128935       1.05934165      -0.54000000
C       -0.15590000       0.27550000      -0.00850000       0.16000000
C        1.30410000       0.06880000      -0.00380000      -0.05000000
C       -0.77969389       0.92167304      -1.00876397      -0.15000000
C        2.32750000       1.04640000       0.00560000      -0.15000000
C        1.94060000      -1.15050000      -0.00650000      -0.01000000
C       -2.26659192      -0.06269514       1.17702215       0.62000000
C       -2.20952088       1.10794166      -0.96652466      -0.15000000
C       -2.94143046       0.65310711       0.05772235      -0.14000000
C        3.51650000       0.35470000       0.00800000      -0.01000000
H       -0.40782780      -0.68434108       1.80892165       0.37000000
H       -0.26191410       1.32459395      -1.87187537       0.15000000
H        2.23260000       2.12300000       0.01050000       0.15000000
H        1.60980000      -2.17950000      -0.01280000       0.15000000
H       -2.67839296       1.63127630      -1.79248748       0.15000000
H       -4.01534193       0.78721859       0.10150523       0.15000000
H        4.55480000       0.65270000       0.01440000       0.15000000
