19
Properties=species:S:1:pos:R:3:initial_charges:R:1 pbc="F F F"
O        3.28940000      -0.98510000       0.00070000      -0.28000000
O       -2.69940244       0.98142066      -2.42063916      -0.57000000
N       -0.78039967       0.54038007      -1.21280508      -0.54000000
C       -0.15590000       0.27550000      -0.00850000       0.16000000
C        1.30410000       0.06880000      -0.00380000      -0.05000000
C       -0.88873658       0.19977587       1.11595668      -0.15000000
C        2.32750000       1.04640000       0.00560000      -0.15000000
C        1.94060000      -1.15050000      -0.00650000      -0.01000000
C       -2.14426853       0.74384166      -1.35085085       0.62000000
C       -2.31615459       0.40086999       1.06187918      -0.15000000
C       -2.94004599       0.65944123      -0.09378016      -0.14000000
C        3.51650000       0.35470000       0.00800000      -0.01000000
H       -0.21477985       0.59139060      -2.05411244       0.37000000
H       -0.46351592      -0.00928471       2.09108924       0.15000000
H        2.23260000       2.12300000       0.01050000       0.15000000
H        1.60980000      -2.17950000      -0.01280000       0.15000000
H       -2.87406299       0.33517947       1.98943387       0.15000000
H       -4.01108714       0.81160567      -0.14768300       0.15000000
H        4.55480000       0.65270000       0.01440000       0.15000000
