19
Properties=species:S:1:pos:R:3:initial_charges:R:1 pbc="F F F"
O        3.28940000      -0.98510000       0.00070000      -0.28000000
O       -2.97106177      -0.83931196       1.89365731      -0.57000000
N       -0.91716853      -0.37664660       0.94317593      -0.54000000
C       -0.15590000       0.27550000      -0.00850000       0.16000000
C        1.30410000       0.06880000      -0.00380000      -0.05000000
C       -0.75692781       1.08500411      -0.89768788      -0.15000000
C        2.32750000       1.04640000       0.00560000      -0.15000000
C        1.94060000      -1.15050000      -0.00650000      -0.01000000
C       -2.29386170      -0.25821401       1.04938858       0.62000000
C       -2.18784974       1.26345939      -0.85893847      -0.15000000
C       -2.94321247       0.64042861       0.05369939      -0.14000000
C        3.51650000       0.35470000       0.00800000      -0.01000000
H       -0.44934894      -0.98214038       1.61014523       0.37000000
H       -0.21940727       1.62952183      -1.66578591       0.15000000
H        2.23260000       2.12300000       0.01050000       0.15000000
H        1.60980000      -2.17950000      -0.01280000       0.15000000
H       -2.63790940       1.92174444      -1.59381386       0.15000000
H       -4.01822384       0.76668468       0.09368233       0.15000000
H        4.55480000       0.65270000       0.01440000       0.15000000
