19
Properties=species:S:1:pos:R:3:initial_charges:R:1 pbc="F F F"
O        3.28940000      -0.98510000       0.00070000      -0.28000000
O       -2.58166966       1.91454398       2.04462453      -0.57000000
N       -0.72238487       1.00099085       1.02264981      -0.54000000
C       -0.15590000       0.27550000      -0.00850000       0.16000000
C        1.30410000       0.06880000      -0.00380000      -0.05000000
C       -0.93962731      -0.20752742      -0.98811341      -0.15000000
C        2.32750000       1.04640000       0.00560000      -0.15000000
C        1.94060000      -1.15050000      -0.00650000      -0.01000000
C       -2.07751920       1.27166472       1.12723528       0.62000000
C       -2.36261710       0.02681754      -0.95543494      -0.15000000
C       -2.93106756       0.72577609       0.03449893      -0.14000000
C        3.51650000       0.35470000       0.00800000      -0.01000000
H       -0.11789506       1.36230644       1.75365532       0.37000000
H       -0.55992689      -0.77936901      -1.82729590       0.15000000
H        2.23260000       2.12300000       0.01050000       0.15000000
H        1.60980000      -2.17950000      -0.01280000       0.15000000
H       -2.96332543      -0.38059542      -1.76110170       0.15000000
H       -3.99797508       0.90917172       0.07003870       0.15000000
H        4.55480000       0.65270000       0.01440000       0.15000000
