19
Properties=species:S:1:pos:R:3:initial_charges:R:1 pbc="F F F"
O        3.28940000      -0.98510000       0.00070000      -0.28000000
O       -2.98888730      -0.96770292       1.78447892      -0.57000000
N       -0.92606498      -0.44073189       0.88836665      -0.54000000
C       -0.15590000       0.27550000      -0.00850000       0.16000000
C        1.30410000       0.06880000      -0.00380000      -0.05000000
C       -0.74866485       1.14455536      -0.84549405      -0.15000000
C        2.32750000       1.04640000       0.00560000      -0.15000000
C        1.94060000      -1.15050000      -0.00650000      -0.01000000
C       -2.30379636      -0.32975873       0.98902806       0.62000000
C       -2.17999686       1.32007373      -0.80851668      -0.15000000
C       -2.94389122       0.63558374       0.05147571      -0.14000000
C        3.51650000       0.35470000       0.00800000      -0.01000000
H       -0.46444512      -1.09090040       1.51647011       0.37000000
H       -0.20397047       1.74076185      -1.56885310       0.15000000
H        2.23260000       2.12300000       0.01050000       0.15000000
H        1.60980000      -2.17950000      -0.01280000       0.15000000
H       -2.62322376       2.02759555      -1.50054092       0.15000000
H       -4.01931253       0.75890118       0.08956131       0.15000000
H        4.55480000       0.65270000       0.01440000       0.15000000
